MODEL 1
REMARK VINA RESULT:      -7.9      0.000      0.000
REMARK  14 active torsions:
REMARK  status: ('A' for Active; 'I' for Inactive)
REMARK    1  A    between atoms: CA_2  and  N_1 
REMARK    2  A    between atoms: CA_2  and  CB_5 
REMARK    3  A    between atoms: CA_2  and  C_3 
REMARK    4  A    between atoms: CB_5  and  CG_6 
REMARK    5  A    between atoms: CG_6  and  CD_7 
REMARK       I    between atoms: CD_7  and  N_10 
REMARK    6  A    between atoms: N_10  and  CA_11 
REMARK    7  A    between atoms: CA_11  and  CB_12 
REMARK    8  A    between atoms: CA_11  and  C_21 
REMARK    9  A    between atoms: CB_12  and  SG_13 
REMARK   10  A    between atoms: SG_13  and  CD_14 
REMARK   11  A    between atoms: CD_14  and  CE_15 
REMARK       I    between atoms: C_21  and  N_23 
REMARK   12  A    between atoms: N_23  and  CA_24 
REMARK   13  A    between atoms: CA_24  and  CB_25 
REMARK   14  A    between atoms: CA_24  and  C_31 
ROOT
ATOM      1  CA  MOL d          10.382   6.349  27.666  0.00  0.00     0.185 C 
ENDROOT
BRANCH   1   2
ATOM      2  N   MOL d          11.494   7.259  27.431  0.00  0.00    -0.347 N 
ATOM      3  CD  MOL d          11.977   7.507  26.218  0.00  0.00     0.218 C 
ATOM      4  OE1 MOL d          11.497   7.037  25.188  0.00  0.00    -0.274 OA
ATOM      5  H9  MOL d          11.913   7.717  28.216  0.00  0.00     0.163 HD
BRANCH   3   6
ATOM      6  CG  MOL d          13.145   8.461  26.170  0.00  0.00     0.105 C 
BRANCH   6   7
ATOM      7  CB  MOL d          13.481   8.937  24.770  0.00  0.00     0.053 C 
BRANCH   7   8
ATOM      8  CA  MOL d          14.766   9.766  24.719  0.00  0.00     0.283 C 
BRANCH   8   9
ATOM      9  N   MOL d          14.656  10.821  23.675  0.00  0.00    -0.065 N 
ATOM     10  H1  MOL d          14.350  11.683  24.099  0.00  0.00     0.275 HD
ATOM     11  H2  MOL d          13.988  10.534  22.977  0.00  0.00     0.275 HD
ATOM     12  H3  MOL d          15.556  10.960  23.243  0.00  0.00     0.275 HD
ENDBRANCH   8   9
BRANCH   8  13
ATOM     13  C   MOL d          15.975   8.858  24.464  0.00  0.00     0.204 C 
ATOM     14  O   MOL d          16.419   8.759  23.299  0.00  0.00    -0.646 OA
ATOM     15  OXT MOL d          16.455   8.238  25.433  0.00  0.00    -0.646 OA
ENDBRANCH   8  13
ENDBRANCH   7   8
ENDBRANCH   6   7
ENDBRANCH   3   6
ENDBRANCH   1   2
BRANCH   1  16
ATOM     16  CB  MOL d          10.904   4.935  27.922  0.00  0.00     0.109 C 
BRANCH  16  17
ATOM     17  SG  MOL d           9.849   3.605  27.369  0.00  0.00    -0.162 SA
BRANCH  17  18
ATOM     18  CD  MOL d           9.657   4.049  25.630  0.00  0.00     0.112 C 
BRANCH  18  19
ATOM     19  CE  MOL d           8.332   4.687  25.308  0.00  0.00    -0.049 A 
ATOM     20  CZ1 MOL d           8.152   5.372  24.109  0.00  0.00     0.008 A 
ATOM     21  CT1 MOL d           6.932   5.967  23.802  0.00  0.00     0.001 A 
ATOM     22  CH  MOL d           5.871   5.879  24.703  0.00  0.00     0.000 A 
ATOM     23  CT2 MOL d           6.038   5.199  25.903  0.00  0.00     0.001 A 
ATOM     24  CZ2 MOL d           7.265   4.606  26.201  0.00  0.00     0.008 A 
ENDBRANCH  18  19
ENDBRANCH  17  18
ENDBRANCH  16  17
ENDBRANCH   1  16
BRANCH   1  25
ATOM     25  C   MOL d           9.591   6.765  28.891  0.00  0.00     0.242 C 
ATOM     26  O   MOL d          10.054   7.565  29.704  0.00  0.00    -0.271 OA
ATOM     27  N   MOL d           8.412   6.177  29.029  0.00  0.00    -0.341 N 
ATOM     28  H20 MOL d           8.109   5.538  28.323  0.00  0.00     0.163 HD
BRANCH  27  29
ATOM     29  CA  MOL d           7.543   6.421  30.165  0.00  0.00     0.219 C 
BRANCH  29  30
ATOM     30  CB  MOL d           7.055   5.150  30.782  0.00  0.00    -0.025 A 
ATOM     31  CG1 MOL d           6.280   5.165  31.936  0.00  0.00     0.010 A 
ATOM     32  CD1 MOL d           5.766   3.985  32.464  0.00  0.00     0.001 A 
ATOM     33  CE  MOL d           6.028   2.776  31.836  0.00  0.00     0.000 A 
ATOM     34  CD2 MOL d           6.805   2.750  30.685  0.00  0.00     0.001 A 
ATOM     35  CG2 MOL d           7.313   3.933  30.165  0.00  0.00     0.010 A 
ENDBRANCH  29  30
BRANCH  29  36
ATOM     36  C   MOL d           6.465   7.474  29.912  0.00  0.00     0.201 C 
ATOM     37  O   MOL d           6.347   8.382  30.757  0.00  0.00    -0.646 OA
ATOM     38  OXT MOL d           5.761   7.391  28.883  0.00  0.00    -0.646 OA
ENDBRANCH  29  36
ENDBRANCH  27  29
ENDBRANCH   1  25
TORSDOF 14
ENDMDL
MODEL 2
REMARK VINA RESULT:      -7.8      4.412      5.873
REMARK  14 active torsions:
REMARK  status: ('A' for Active; 'I' for Inactive)
REMARK    1  A    between atoms: CA_2  and  N_1 
REMARK    2  A    between atoms: CA_2  and  CB_5 
REMARK    3  A    between atoms: CA_2  and  C_3 
REMARK    4  A    between atoms: CB_5  and  CG_6 
REMARK    5  A    between atoms: CG_6  and  CD_7 
REMARK       I    between atoms: CD_7  and  N_10 
REMARK    6  A    between atoms: N_10  and  CA_11 
REMARK    7  A    between atoms: CA_11  and  CB_12 
REMARK    8  A    between atoms: CA_11  and  C_21 
REMARK    9  A    between atoms: CB_12  and  SG_13 
REMARK   10  A    between atoms: SG_13  and  CD_14 
REMARK   11  A    between atoms: CD_14  and  CE_15 
REMARK       I    between atoms: C_21  and  N_23 
REMARK   12  A    between atoms: N_23  and  CA_24 
REMARK   13  A    between atoms: CA_24  and  CB_25 
REMARK   14  A    between atoms: CA_24  and  C_31 
ROOT
ATOM      1  CA  MOL d          10.085   3.305  27.524  0.00  0.00     0.185 C 
ENDROOT
BRANCH   1   2
ATOM      2  N   MOL d          10.182   3.469  26.080  0.00  0.00    -0.347 N 
ATOM      3  CD  MOL d          10.477   2.464  25.261  0.00  0.00     0.218 C 
ATOM      4  OE1 MOL d          10.639   1.305  25.640  0.00  0.00    -0.274 OA
ATOM      5  H9  MOL d          10.020   4.374  25.688  0.00  0.00     0.163 HD
BRANCH   3   6
ATOM      6  CG  MOL d          10.555   2.824  23.798  0.00  0.00     0.105 C 
BRANCH   6   7
ATOM      7  CB  MOL d          11.838   2.370  23.130  0.00  0.00     0.053 C 
BRANCH   7   8
ATOM      8  CA  MOL d          11.639   1.143  22.239  0.00  0.00     0.283 C 
BRANCH   8   9
ATOM      9  N   MOL d          11.212  -0.023  23.059  0.00  0.00    -0.065 N 
ATOM     10  H1  MOL d          10.803  -0.724  22.459  0.00  0.00     0.275 HD
ATOM     11  H2  MOL d          10.530   0.276  23.739  0.00  0.00     0.275 HD
ATOM     12  H3  MOL d          12.011  -0.412  23.533  0.00  0.00     0.275 HD
ENDBRANCH   8   9
BRANCH   8  13
ATOM     13  C   MOL d          12.927   0.833  21.466  0.00  0.00     0.204 C 
ATOM     14  O   MOL d          13.865   1.659  21.502  0.00  0.00    -0.646 OA
ATOM     15  OXT MOL d          12.976  -0.229  20.815  0.00  0.00    -0.646 OA
ENDBRANCH   8  13
ENDBRANCH   7   8
ENDBRANCH   6   7
ENDBRANCH   3   6
ENDBRANCH   1   2
BRANCH   1  16
ATOM     16  CB  MOL d          10.484   4.603  28.228  0.00  0.00     0.109 C 
BRANCH  16  17
ATOM     17  SG  MOL d          10.583   6.052  27.188  0.00  0.00    -0.162 SA
BRANCH  17  18
ATOM     18  CD  MOL d           8.865   6.603  27.242  0.00  0.00     0.112 C 
BRANCH  18  19
ATOM     19  CE  MOL d           8.560   7.529  28.390  0.00  0.00    -0.049 A 
ATOM     20  CZ1 MOL d           7.397   8.295  28.388  0.00  0.00     0.008 A 
ATOM     21  CT1 MOL d           7.106   9.155  29.443  0.00  0.00     0.001 A 
ATOM     22  CH  MOL d           7.986   9.255  30.519  0.00  0.00     0.000 A 
ATOM     23  CT2 MOL d           9.150   8.497  30.533  0.00  0.00     0.001 A 
ATOM     24  CZ2 MOL d           9.432   7.637  29.471  0.00  0.00     0.008 A 
ENDBRANCH  18  19
ENDBRANCH  17  18
ENDBRANCH  16  17
ENDBRANCH   1  16
BRANCH   1  25
ATOM     25  C   MOL d           8.661   2.989  27.938  0.00  0.00     0.242 C 
ATOM     26  O   MOL d           7.728   3.106  27.144  0.00  0.00    -0.271 OA
ATOM     27  N   MOL d           8.507   2.630  29.205  0.00  0.00    -0.341 N 
ATOM     28  H20 MOL d           9.318   2.559  29.785  0.00  0.00     0.163 HD
BRANCH  27  29
ATOM     29  CA  MOL d           7.209   2.336  29.783  0.00  0.00     0.219 C 
BRANCH  29  30
ATOM     30  CB  MOL d           6.721   3.446  30.657  0.00  0.00    -0.025 A 
ATOM     31  CG1 MOL d           6.292   3.198  31.956  0.00  0.00     0.010 A 
ATOM     32  CD1 MOL d           5.909   4.244  32.791  0.00  0.00     0.001 A 
ATOM     33  CE  MOL d           5.952   5.551  32.326  0.00  0.00     0.000 A 
ATOM     34  CD2 MOL d           6.376   5.807  31.028  0.00  0.00     0.001 A 
ATOM     35  CG2 MOL d           6.756   4.757  30.203  0.00  0.00     0.010 A 
ENDBRANCH  29  30
BRANCH  29  36
ATOM     36  C   MOL d           7.097   0.938  30.388  0.00  0.00     0.201 C 
ATOM     37  O   MOL d           5.952   0.511  30.627  0.00  0.00    -0.646 OA
ATOM     38  OXT MOL d           8.139   0.285  30.611  0.00  0.00    -0.646 OA
ENDBRANCH  29  36
ENDBRANCH  27  29
ENDBRANCH   1  25
TORSDOF 14
ENDMDL
MODEL 3
REMARK VINA RESULT:      -7.6      3.713      4.728
REMARK  14 active torsions:
REMARK  status: ('A' for Active; 'I' for Inactive)
REMARK    1  A    between atoms: CA_2  and  N_1 
REMARK    2  A    between atoms: CA_2  and  CB_5 
REMARK    3  A    between atoms: CA_2  and  C_3 
REMARK    4  A    between atoms: CB_5  and  CG_6 
REMARK    5  A    between atoms: CG_6  and  CD_7 
REMARK       I    between atoms: CD_7  and  N_10 
REMARK    6  A    between atoms: N_10  and  CA_11 
REMARK    7  A    between atoms: CA_11  and  CB_12 
REMARK    8  A    between atoms: CA_11  and  C_21 
REMARK    9  A    between atoms: CB_12  and  SG_13 
REMARK   10  A    between atoms: SG_13  and  CD_14 
REMARK   11  A    between atoms: CD_14  and  CE_15 
REMARK       I    between atoms: C_21  and  N_23 
REMARK   12  A    between atoms: N_23  and  CA_24 
REMARK   13  A    between atoms: CA_24  and  CB_25 
REMARK   14  A    between atoms: CA_24  and  C_31 
ROOT
ATOM      1  CA  MOL d           7.933   6.510  29.254  0.00  0.00     0.185 C 
ENDROOT
BRANCH   1   2
ATOM      2  N   MOL d           8.709   5.456  28.615  0.00  0.00    -0.347 N 
ATOM      3  CD  MOL d          10.018   5.554  28.403  0.00  0.00     0.218 C 
ATOM      4  OE1 MOL d          10.695   6.511  28.774  0.00  0.00    -0.274 OA
ATOM      5  H9  MOL d           8.237   4.623  28.324  0.00  0.00     0.163 HD
BRANCH   3   6
ATOM      6  CG  MOL d          10.650   4.372  27.710  0.00  0.00     0.105 C 
BRANCH   6   7
ATOM      7  CB  MOL d          10.487   4.397  26.203  0.00  0.00     0.053 C 
BRANCH   7   8
ATOM      8  CA  MOL d          10.060   3.044  25.631  0.00  0.00     0.283 C 
BRANCH   8   9
ATOM      9  N   MOL d          10.068   2.008  26.700  0.00  0.00    -0.065 N 
ATOM     10  H1  MOL d          10.576   1.198  26.379  0.00  0.00     0.275 HD
ATOM     11  H2  MOL d           9.120   1.745  26.920  0.00  0.00     0.275 HD
ATOM     12  H3  MOL d          10.514   2.379  27.524  0.00  0.00     0.275 HD
ENDBRANCH   8   9
BRANCH   8  13
ATOM     13  C   MOL d          10.976   2.645  24.468  0.00  0.00     0.204 C 
ATOM     14  O   MOL d          12.201   2.516  24.682  0.00  0.00    -0.646 OA
ATOM     15  OXT MOL d          10.458   2.484  23.345  0.00  0.00    -0.646 OA
ENDBRANCH   8  13
ENDBRANCH   7   8
ENDBRANCH   6   7
ENDBRANCH   3   6
ENDBRANCH   1   2
BRANCH   1  16
ATOM     16  CB  MOL d           6.929   7.099  28.262  0.00  0.00     0.109 C 
BRANCH  16  17
ATOM     17  SG  MOL d           5.306   6.354  28.265  0.00  0.00    -0.162 SA
BRANCH  17  18
ATOM     18  CD  MOL d           5.564   5.018  27.078  0.00  0.00     0.112 C 
BRANCH  18  19
ATOM     19  CE  MOL d           5.853   5.495  25.680  0.00  0.00    -0.049 A 
ATOM     20  CZ1 MOL d           4.868   6.141  24.939  0.00  0.00     0.008 A 
ATOM     21  CT1 MOL d           5.124   6.585  23.644  0.00  0.00     0.001 A 
ATOM     22  CH  MOL d           6.381   6.384  23.077  0.00  0.00     0.000 A 
ATOM     23  CT2 MOL d           7.372   5.740  23.806  0.00  0.00     0.001 A 
ATOM     24  CZ2 MOL d           7.106   5.298  25.103  0.00  0.00     0.008 A 
ENDBRANCH  18  19
ENDBRANCH  17  18
ENDBRANCH  16  17
ENDBRANCH   1  16
BRANCH   1  25
ATOM     25  C   MOL d           7.140   5.963  30.425  0.00  0.00     0.242 C 
ATOM     26  O   MOL d           6.757   6.701  31.333  0.00  0.00    -0.271 OA
ATOM     27  N   MOL d           6.939   4.653  30.410  0.00  0.00    -0.341 N 
ATOM     28  H20 MOL d           7.283   4.125  29.634  0.00  0.00     0.163 HD
BRANCH  27  29
ATOM     29  CA  MOL d           6.241   3.955  31.473  0.00  0.00     0.219 C 
BRANCH  29  30
ATOM     30  CB  MOL d           6.703   2.541  31.612  0.00  0.00    -0.025 A 
ATOM     31  CG1 MOL d           6.454   1.818  32.773  0.00  0.00     0.010 A 
ATOM     32  CD1 MOL d           6.820   0.479  32.870  0.00  0.00     0.001 A 
ATOM     33  CE  MOL d           7.443  -0.146  31.799  0.00  0.00     0.000 A 
ATOM     34  CD2 MOL d           7.700   0.569  30.637  0.00  0.00     0.001 A 
ATOM     35  CG2 MOL d           7.330   1.905  30.550  0.00  0.00     0.010 A 
ENDBRANCH  29  30
BRANCH  29  36
ATOM     36  C   MOL d           4.725   4.142  31.453  0.00  0.00     0.201 C 
ATOM     37  O   MOL d           4.093   3.578  30.539  0.00  0.00    -0.646 OA
ATOM     38  OXT MOL d           4.184   4.836  32.341  0.00  0.00    -0.646 OA
ENDBRANCH  29  36
ENDBRANCH  27  29
ENDBRANCH   1  25
TORSDOF 14
ENDMDL
MODEL 4
REMARK VINA RESULT:      -7.6      2.109      3.628
REMARK  14 active torsions:
REMARK  status: ('A' for Active; 'I' for Inactive)
REMARK    1  A    between atoms: CA_2  and  N_1 
REMARK    2  A    between atoms: CA_2  and  CB_5 
REMARK    3  A    between atoms: CA_2  and  C_3 
REMARK    4  A    between atoms: CB_5  and  CG_6 
REMARK    5  A    between atoms: CG_6  and  CD_7 
REMARK       I    between atoms: CD_7  and  N_10 
REMARK    6  A    between atoms: N_10  and  CA_11 
REMARK    7  A    between atoms: CA_11  and  CB_12 
REMARK    8  A    between atoms: CA_11  and  C_21 
REMARK    9  A    between atoms: CB_12  and  SG_13 
REMARK   10  A    between atoms: SG_13  and  CD_14 
REMARK   11  A    between atoms: CD_14  and  CE_15 
REMARK       I    between atoms: C_21  and  N_23 
REMARK   12  A    between atoms: N_23  and  CA_24 
REMARK   13  A    between atoms: CA_24  and  CB_25 
REMARK   14  A    between atoms: CA_24  and  C_31 
ROOT
ATOM      1  CA  MOL d           7.012   7.326  28.964  0.00  0.00     0.185 C 
ENDROOT
BRANCH   1   2
ATOM      2  N   MOL d           8.261   6.910  28.340  0.00  0.00    -0.347 N 
ATOM      3  CD  MOL d           9.443   7.401  28.699  0.00  0.00     0.218 C 
ATOM      4  OE1 MOL d           9.592   8.203  29.620  0.00  0.00    -0.274 OA
ATOM      5  H9  MOL d           8.228   6.226  27.612  0.00  0.00     0.163 HD
BRANCH   3   6
ATOM      6  CG  MOL d          10.625   6.868  27.928  0.00  0.00     0.105 C 
BRANCH   6   7
ATOM      7  CB  MOL d          10.694   7.374  26.501  0.00  0.00     0.053 C 
BRANCH   7   8
ATOM      8  CA  MOL d          12.003   7.000  25.803  0.00  0.00     0.283 C 
BRANCH   8   9
ATOM      9  N   MOL d          12.785   6.056  26.646  0.00  0.00    -0.065 N 
ATOM     10  H1  MOL d          12.307   5.169  26.689  0.00  0.00     0.275 HD
ATOM     11  H2  MOL d          12.875   6.434  27.577  0.00  0.00     0.275 HD
ATOM     12  H3  MOL d          13.700   5.927  26.246  0.00  0.00     0.275 HD
ENDBRANCH   8   9
BRANCH   8  13
ATOM     13  C   MOL d          12.816   8.262  25.485  0.00  0.00     0.204 C 
ATOM     14  O   MOL d          13.227   8.968  26.431  0.00  0.00    -0.646 OA
ATOM     15  OXT MOL d          13.017   8.540  24.287  0.00  0.00    -0.646 OA
ENDBRANCH   8  13
ENDBRANCH   7   8
ENDBRANCH   6   7
ENDBRANCH   3   6
ENDBRANCH   1   2
BRANCH   1  16
ATOM     16  CB  MOL d           5.832   6.994  28.051  0.00  0.00     0.109 C 
BRANCH  16  17
ATOM     17  SG  MOL d           6.202   6.902  26.306  0.00  0.00    -0.162 SA
BRANCH  17  18
ATOM     18  CD  MOL d           6.382   5.116  26.110  0.00  0.00     0.112 C 
BRANCH  18  19
ATOM     19  CE  MOL d           7.756   4.689  25.667  0.00  0.00    -0.049 A 
ATOM     20  CZ1 MOL d           8.262   5.106  24.439  0.00  0.00     0.008 A 
ATOM     21  CT1 MOL d           9.530   4.716  24.019  0.00  0.00     0.001 A 
ATOM     22  CH  MOL d          10.310   3.898  24.834  0.00  0.00     0.000 A 
ATOM     23  CT2 MOL d           9.816   3.474  26.062  0.00  0.00     0.001 A 
ATOM     24  CZ2 MOL d           8.543   3.871  26.474  0.00  0.00     0.008 A 
ENDBRANCH  18  19
ENDBRANCH  17  18
ENDBRANCH  16  17
ENDBRANCH   1  16
BRANCH   1  25
ATOM     25  C   MOL d           6.790   6.590  30.272  0.00  0.00     0.242 C 
ATOM     26  O   MOL d           7.037   7.126  31.352  0.00  0.00    -0.271 OA
ATOM     27  N   MOL d           6.361   5.342  30.152  0.00  0.00    -0.341 N 
ATOM     28  H20 MOL d           6.183   4.981  29.236  0.00  0.00     0.163 HD
BRANCH  27  29
ATOM     29  CA  MOL d           6.139   4.477  31.295  0.00  0.00     0.219 C 
BRANCH  29  30
ATOM     30  CB  MOL d           6.746   3.125  31.101  0.00  0.00    -0.025 A 
ATOM     31  CG1 MOL d           6.531   2.105  32.021  0.00  0.00     0.010 A 
ATOM     32  CD1 MOL d           7.036   0.828  31.799  0.00  0.00     0.001 A 
ATOM     33  CE  MOL d           7.765   0.564  30.648  0.00  0.00     0.000 A 
ATOM     34  CD2 MOL d           7.988   1.577  29.726  0.00  0.00     0.001 A 
ATOM     35  CG2 MOL d           7.480   2.849  29.956  0.00  0.00     0.010 A 
ENDBRANCH  29  30
BRANCH  29  36
ATOM     36  C   MOL d           4.699   4.473  31.806  0.00  0.00     0.201 C 
ATOM     37  O   MOL d           4.459   5.129  32.837  0.00  0.00    -0.646 OA
ATOM     38  OXT MOL d           3.831   3.831  31.178  0.00  0.00    -0.646 OA
ENDBRANCH  29  36
ENDBRANCH  27  29
ENDBRANCH   1  25
TORSDOF 14
ENDMDL
MODEL 5
REMARK VINA RESULT:      -7.6      3.358      5.113
REMARK  14 active torsions:
REMARK  status: ('A' for Active; 'I' for Inactive)
REMARK    1  A    between atoms: CA_2  and  N_1 
REMARK    2  A    between atoms: CA_2  and  CB_5 
REMARK    3  A    between atoms: CA_2  and  C_3 
REMARK    4  A    between atoms: CB_5  and  CG_6 
REMARK    5  A    between atoms: CG_6  and  CD_7 
REMARK       I    between atoms: CD_7  and  N_10 
REMARK    6  A    between atoms: N_10  and  CA_11 
REMARK    7  A    between atoms: CA_11  and  CB_12 
REMARK    8  A    between atoms: CA_11  and  C_21 
REMARK    9  A    between atoms: CB_12  and  SG_13 
REMARK   10  A    between atoms: SG_13  and  CD_14 
REMARK   11  A    between atoms: CD_14  and  CE_15 
REMARK       I    between atoms: C_21  and  N_23 
REMARK   12  A    between atoms: N_23  and  CA_24 
REMARK   13  A    between atoms: CA_24  and  CB_25 
REMARK   14  A    between atoms: CA_24  and  C_31 
ROOT
ATOM      1  CA  MOL d           8.164   7.232  29.506  0.00  0.00     0.185 C 
ENDROOT
BRANCH   1   2
ATOM      2  N   MOL d           8.956   6.187  28.870  0.00  0.00    -0.347 N 
ATOM      3  CD  MOL d          10.273   6.279  28.712  0.00  0.00     0.218 C 
ATOM      4  OE1 MOL d          10.942   7.220  29.134  0.00  0.00    -0.274 OA
ATOM      5  H9  MOL d           8.489   5.367  28.538  0.00  0.00     0.163 HD
BRANCH   3   6
ATOM      6  CG  MOL d          10.921   5.110  28.012  0.00  0.00     0.105 C 
BRANCH   6   7
ATOM      7  CB  MOL d          10.188   3.799  28.216  0.00  0.00     0.053 C 
BRANCH   7   8
ATOM      8  CA  MOL d           9.549   3.272  26.930  0.00  0.00     0.283 C 
BRANCH   8   9
ATOM      9  N   MOL d           8.072   3.446  26.980  0.00  0.00    -0.065 N 
ATOM     10  H1  MOL d           7.636   2.560  27.181  0.00  0.00     0.275 HD
ATOM     11  H2  MOL d           7.744   3.787  26.090  0.00  0.00     0.275 HD
ATOM     12  H3  MOL d           7.836   4.109  27.702  0.00  0.00     0.275 HD
ENDBRANCH   8   9
BRANCH   8  13
ATOM     13  C   MOL d           9.926   1.801  26.714  0.00  0.00     0.204 C 
ATOM     14  O   MOL d          10.926   1.531  26.014  0.00  0.00    -0.646 OA
ATOM     15  OXT MOL d           9.202   0.930  27.235  0.00  0.00    -0.646 OA
ENDBRANCH   8  13
ENDBRANCH   7   8
ENDBRANCH   6   7
ENDBRANCH   3   6
ENDBRANCH   1   2
BRANCH   1  16
ATOM     16  CB  MOL d           7.338   7.978  28.458  0.00  0.00     0.109 C 
BRANCH  16  17
ATOM     17  SG  MOL d           6.777   7.001  27.072  0.00  0.00    -0.162 SA
BRANCH  17  18
ATOM     18  CD  MOL d           7.689   7.794  25.731  0.00  0.00     0.112 C 
BRANCH  18  19
ATOM     19  CE  MOL d           8.694   6.893  25.064  0.00  0.00    -0.049 A 
ATOM     20  CZ1 MOL d           8.277   5.747  24.393  0.00  0.00     0.008 A 
ATOM     21  CT1 MOL d           9.198   4.906  23.775  0.00  0.00     0.001 A 
ATOM     22  CH  MOL d          10.557   5.211  23.822  0.00  0.00     0.000 A 
ATOM     23  CT2 MOL d          10.986   6.352  24.488  0.00  0.00     0.001 A 
ATOM     24  CZ2 MOL d          10.055   7.189  25.105  0.00  0.00     0.008 A 
ENDBRANCH  18  19
ENDBRANCH  17  18
ENDBRANCH  16  17
ENDBRANCH   1  16
BRANCH   1  25
ATOM     25  C   MOL d           7.191   6.638  30.507  0.00  0.00     0.242 C 
ATOM     26  O   MOL d           6.603   7.351  31.320  0.00  0.00    -0.271 OA
ATOM     27  N   MOL d           7.067   5.320  30.461  0.00  0.00    -0.341 N 
ATOM     28  H20 MOL d           7.582   4.813  29.769  0.00  0.00     0.163 HD
BRANCH  27  29
ATOM     29  CA  MOL d           6.216   4.581  31.375  0.00  0.00     0.219 C 
BRANCH  29  30
ATOM     30  CB  MOL d           6.567   3.128  31.417  0.00  0.00    -0.025 A 
ATOM     31  CG1 MOL d           7.254   2.527  30.368  0.00  0.00     0.010 A 
ATOM     32  CD1 MOL d           7.644   1.194  30.444  0.00  0.00     0.001 A 
ATOM     33  CE  MOL d           7.344   0.450  31.577  0.00  0.00     0.000 A 
ATOM     34  CD2 MOL d           6.654   1.041  32.628  0.00  0.00     0.001 A 
ATOM     35  CG2 MOL d           6.270   2.373  32.542  0.00  0.00     0.010 A 
ENDBRANCH  29  30
BRANCH  29  36
ATOM     36  C   MOL d           4.727   4.883  31.224  0.00  0.00     0.201 C 
ATOM     37  O   MOL d           4.221   4.709  30.098  0.00  0.00    -0.646 OA
ATOM     38  OXT MOL d           4.081   5.280  32.217  0.00  0.00    -0.646 OA
ENDBRANCH  29  36
ENDBRANCH  27  29
ENDBRANCH   1  25
TORSDOF 14
ENDMDL
MODEL 6
REMARK VINA RESULT:      -7.5      3.824      8.818
REMARK  14 active torsions:
REMARK  status: ('A' for Active; 'I' for Inactive)
REMARK    1  A    between atoms: CA_2  and  N_1 
REMARK    2  A    between atoms: CA_2  and  CB_5 
REMARK    3  A    between atoms: CA_2  and  C_3 
REMARK    4  A    between atoms: CB_5  and  CG_6 
REMARK    5  A    between atoms: CG_6  and  CD_7 
REMARK       I    between atoms: CD_7  and  N_10 
REMARK    6  A    between atoms: N_10  and  CA_11 
REMARK    7  A    between atoms: CA_11  and  CB_12 
REMARK    8  A    between atoms: CA_11  and  C_21 
REMARK    9  A    between atoms: CB_12  and  SG_13 
REMARK   10  A    between atoms: SG_13  and  CD_14 
REMARK   11  A    between atoms: CD_14  and  CE_15 
REMARK       I    between atoms: C_21  and  N_23 
REMARK   12  A    between atoms: N_23  and  CA_24 
REMARK   13  A    between atoms: CA_24  and  CB_25 
REMARK   14  A    between atoms: CA_24  and  C_31 
ROOT
ATOM      1  CA  MOL d           8.250   4.055  28.393  0.00  0.00     0.185 C 
ENDROOT
BRANCH   1   2
ATOM      2  N   MOL d           8.206   2.946  29.336  0.00  0.00    -0.347 N 
ATOM      3  CD  MOL d           8.313   1.676  28.959  0.00  0.00     0.218 C 
ATOM      4  OE1 MOL d           8.512   1.329  27.796  0.00  0.00    -0.274 OA
ATOM      5  H9  MOL d           8.091   3.149  30.309  0.00  0.00     0.163 HD
BRANCH   3   6
ATOM      6  CG  MOL d           8.224   0.662  30.072  0.00  0.00     0.105 C 
BRANCH   6   7
ATOM      7  CB  MOL d           7.200   1.015  31.132  0.00  0.00     0.053 C 
BRANCH   7   8
ATOM      8  CA  MOL d           6.417  -0.202  31.629  0.00  0.00     0.283 C 
BRANCH   8   9
ATOM      9  N   MOL d           4.988  -0.091  31.231  0.00  0.00    -0.065 N 
ATOM     10  H1  MOL d           4.906   0.525  30.437  0.00  0.00     0.275 HD
ATOM     11  H2  MOL d           4.453   0.281  32.001  0.00  0.00     0.275 HD
ATOM     12  H3  MOL d           4.635  -1.003  30.987  0.00  0.00     0.275 HD
ENDBRANCH   8   9
BRANCH   8  13
ATOM     13  C   MOL d           6.560  -0.341  33.149  0.00  0.00     0.204 C 
ATOM     14  O   MOL d           6.040  -1.328  33.715  0.00  0.00    -0.646 OA
ATOM     15  OXT MOL d           7.177   0.551  33.763  0.00  0.00    -0.646 OA
ENDBRANCH   8  13
ENDBRANCH   7   8
ENDBRANCH   6   7
ENDBRANCH   3   6
ENDBRANCH   1   2
BRANCH   1  16
ATOM     16  CB  MOL d           8.013   5.377  29.124  0.00  0.00     0.109 C 
BRANCH  16  17
ATOM     17  SG  MOL d           6.866   6.502  28.342  0.00  0.00    -0.162 SA
BRANCH  17  18
ATOM     18  CD  MOL d           7.972   7.332  27.181  0.00  0.00     0.112 C 
BRANCH  18  19
ATOM     19  CE  MOL d           7.548   7.206  25.742  0.00  0.00    -0.049 A 
ATOM     20  CZ1 MOL d           7.134   5.977  25.235  0.00  0.00     0.008 A 
ATOM     21  CT1 MOL d           6.742   5.848  23.906  0.00  0.00     0.001 A 
ATOM     22  CH  MOL d           6.759   6.961  23.067  0.00  0.00     0.000 A 
ATOM     23  CT2 MOL d           7.169   8.192  23.560  0.00  0.00     0.001 A 
ATOM     24  CZ2 MOL d           7.561   8.311  24.895  0.00  0.00     0.008 A 
ENDBRANCH  18  19
ENDBRANCH  17  18
ENDBRANCH  16  17
ENDBRANCH   1  16
BRANCH   1  25
ATOM     25  C   MOL d           9.610   4.147  27.729  0.00  0.00     0.242 C 
ATOM     26  O   MOL d          10.618   4.420  28.380  0.00  0.00    -0.271 OA
ATOM     27  N   MOL d           9.613   3.956  26.417  0.00  0.00    -0.341 N 
ATOM     28  H20 MOL d           8.749   3.738  25.963  0.00  0.00     0.163 HD
BRANCH  27  29
ATOM     29  CA  MOL d          10.817   4.053  25.614  0.00  0.00     0.219 C 
BRANCH  29  30
ATOM     30  CB  MOL d          10.896   5.350  24.876  0.00  0.00    -0.025 A 
ATOM     31  CG1 MOL d          10.462   5.452  23.559  0.00  0.00     0.010 A 
ATOM     32  CD1 MOL d          10.468   6.678  22.901  0.00  0.00     0.001 A 
ATOM     33  CE  MOL d          10.914   7.814  23.560  0.00  0.00     0.000 A 
ATOM     34  CD2 MOL d          11.354   7.721  24.874  0.00  0.00     0.001 A 
ATOM     35  CG2 MOL d          11.343   6.493  25.523  0.00  0.00     0.010 A 
ENDBRANCH  29  30
BRANCH  29  36
ATOM     36  C   MOL d          11.109   2.811  24.774  0.00  0.00     0.201 C 
ATOM     37  O   MOL d          10.135   2.111  24.435  0.00  0.00    -0.646 OA
ATOM     38  OXT MOL d          12.290   2.551  24.458  0.00  0.00    -0.646 OA
ENDBRANCH  29  36
ENDBRANCH  27  29
ENDBRANCH   1  25
TORSDOF 14
ENDMDL
MODEL 7
REMARK VINA RESULT:      -7.5      4.429      9.772
REMARK  14 active torsions:
REMARK  status: ('A' for Active; 'I' for Inactive)
REMARK    1  A    between atoms: CA_2  and  N_1 
REMARK    2  A    between atoms: CA_2  and  CB_5 
REMARK    3  A    between atoms: CA_2  and  C_3 
REMARK    4  A    between atoms: CB_5  and  CG_6 
REMARK    5  A    between atoms: CG_6  and  CD_7 
REMARK       I    between atoms: CD_7  and  N_10 
REMARK    6  A    between atoms: N_10  and  CA_11 
REMARK    7  A    between atoms: CA_11  and  CB_12 
REMARK    8  A    between atoms: CA_11  and  C_21 
REMARK    9  A    between atoms: CB_12  and  SG_13 
REMARK   10  A    between atoms: SG_13  and  CD_14 
REMARK   11  A    between atoms: CD_14  and  CE_15 
REMARK       I    between atoms: C_21  and  N_23 
REMARK   12  A    between atoms: N_23  and  CA_24 
REMARK   13  A    between atoms: CA_24  and  CB_25 
REMARK   14  A    between atoms: CA_24  and  C_31 
ROOT
ATOM      1  CA  MOL d           8.143   2.138  28.704  0.00  0.00     0.185 C 
ENDROOT
BRANCH   1   2
ATOM      2  N   MOL d           8.356   1.147  29.749  0.00  0.00    -0.347 N 
ATOM      3  CD  MOL d           7.369   0.677  30.507  0.00  0.00     0.218 C 
ATOM      4  OE1 MOL d           6.190   0.994  30.358  0.00  0.00    -0.274 OA
ATOM      5  H9  MOL d           9.283   0.804  29.903  0.00  0.00     0.163 HD
BRANCH   3   6
ATOM      6  CG  MOL d           7.782  -0.329  31.553  0.00  0.00     0.105 C 
BRANCH   6   7
ATOM      7  CB  MOL d           7.042  -0.174  32.867  0.00  0.00     0.053 C 
BRANCH   7   8
ATOM      8  CA  MOL d           5.968  -1.244  33.072  0.00  0.00     0.283 C 
BRANCH   8   9
ATOM      9  N   MOL d           4.642  -0.733  32.632  0.00  0.00    -0.065 N 
ATOM     10  H1  MOL d           4.773  -0.005  31.947  0.00  0.00     0.275 HD
ATOM     11  H2  MOL d           4.144  -0.361  33.426  0.00  0.00     0.275 HD
ATOM     12  H3  MOL d           4.110  -1.486  32.224  0.00  0.00     0.275 HD
ENDBRANCH   8   9
BRANCH   8  13
ATOM     13  C   MOL d           5.931  -1.686  34.541  0.00  0.00     0.204 C 
ATOM     14  O   MOL d           4.980  -2.396  34.932  0.00  0.00    -0.646 OA
ATOM     15  OXT MOL d           6.848  -1.298  35.290  0.00  0.00    -0.646 OA
ENDBRANCH   8  13
ENDBRANCH   7   8
ENDBRANCH   6   7
ENDBRANCH   3   6
ENDBRANCH   1   2
BRANCH   1  16
ATOM     16  CB  MOL d           7.702   3.466  29.321  0.00  0.00     0.109 C 
BRANCH  16  17
ATOM     17  SG  MOL d           6.384   4.319  28.469  0.00  0.00    -0.162 SA
BRANCH  17  18
ATOM     18  CD  MOL d           7.330   5.595  27.610  0.00  0.00     0.112 C 
BRANCH  18  19
ATOM     19  CE  MOL d           8.221   6.403  28.515  0.00  0.00    -0.049 A 
ATOM     20  CZ1 MOL d           7.700   7.017  29.651  0.00  0.00     0.008 A 
ATOM     21  CT1 MOL d           8.515   7.768  30.494  0.00  0.00     0.001 A 
ATOM     22  CH  MOL d           9.870   7.911  30.203  0.00  0.00     0.000 A 
ATOM     23  CT2 MOL d          10.402   7.304  29.072  0.00  0.00     0.001 A 
ATOM     24  CZ2 MOL d           9.577   6.552  28.234  0.00  0.00     0.008 A 
ENDBRANCH  18  19
ENDBRANCH  17  18
ENDBRANCH  16  17
ENDBRANCH   1  16
BRANCH   1  25
ATOM     25  C   MOL d           9.425   2.402  27.939  0.00  0.00     0.242 C 
ATOM     26  O   MOL d          10.506   2.490  28.521  0.00  0.00    -0.271 OA
ATOM     27  N   MOL d           9.279   2.568  26.632  0.00  0.00    -0.341 N 
ATOM     28  H20 MOL d           8.365   2.480  26.236  0.00  0.00     0.163 HD
BRANCH  27  29
ATOM     29  CA  MOL d          10.391   2.873  25.752  0.00  0.00     0.219 C 
BRANCH  29  30
ATOM     30  CB  MOL d          10.281   4.243  25.164  0.00  0.00    -0.025 A 
ATOM     31  CG1 MOL d           9.126   4.648  24.506  0.00  0.00     0.010 A 
ATOM     32  CD1 MOL d           8.999   5.948  24.025  0.00  0.00     0.001 A 
ATOM     33  CE  MOL d          10.036   6.853  24.200  0.00  0.00     0.000 A 
ATOM     34  CD2 MOL d          11.196   6.456  24.853  0.00  0.00     0.001 A 
ATOM     35  CG2 MOL d          11.313   5.157  25.329  0.00  0.00     0.010 A 
ENDBRANCH  29  30
BRANCH  29  36
ATOM     36  C   MOL d          10.722   1.764  24.755  0.00  0.00     0.201 C 
ATOM     37  O   MOL d          10.217   0.644  24.961  0.00  0.00    -0.646 OA
ATOM     38  OXT MOL d          11.466   2.019  23.784  0.00  0.00    -0.646 OA
ENDBRANCH  29  36
ENDBRANCH  27  29
ENDBRANCH   1  25
TORSDOF 14
ENDMDL
MODEL 8
REMARK VINA RESULT:      -7.4      3.486      5.295
REMARK  14 active torsions:
REMARK  status: ('A' for Active; 'I' for Inactive)
REMARK    1  A    between atoms: CA_2  and  N_1 
REMARK    2  A    between atoms: CA_2  and  CB_5 
REMARK    3  A    between atoms: CA_2  and  C_3 
REMARK    4  A    between atoms: CB_5  and  CG_6 
REMARK    5  A    between atoms: CG_6  and  CD_7 
REMARK       I    between atoms: CD_7  and  N_10 
REMARK    6  A    between atoms: N_10  and  CA_11 
REMARK    7  A    between atoms: CA_11  and  CB_12 
REMARK    8  A    between atoms: CA_11  and  C_21 
REMARK    9  A    between atoms: CB_12  and  SG_13 
REMARK   10  A    between atoms: SG_13  and  CD_14 
REMARK   11  A    between atoms: CD_14  and  CE_15 
REMARK       I    between atoms: C_21  and  N_23 
REMARK   12  A    between atoms: N_23  and  CA_24 
REMARK   13  A    between atoms: CA_24  and  CB_25 
REMARK   14  A    between atoms: CA_24  and  C_31 
ROOT
ATOM      1  CA  MOL d           7.566   6.273  28.130  0.00  0.00     0.185 C 
ENDROOT
BRANCH   1   2
ATOM      2  N   MOL d           8.440   6.848  27.116  0.00  0.00    -0.347 N 
ATOM      3  CD  MOL d           9.766   6.821  27.211  0.00  0.00     0.218 C 
ATOM      4  OE1 MOL d          10.369   6.266  28.127  0.00  0.00    -0.274 OA
ATOM      5  H9  MOL d           8.025   7.280  26.315  0.00  0.00     0.163 HD
BRANCH   3   6
ATOM      6  CG  MOL d          10.507   7.483  26.076  0.00  0.00     0.105 C 
BRANCH   6   7
ATOM      7  CB  MOL d          11.589   6.612  25.469  0.00  0.00     0.053 C 
BRANCH   7   8
ATOM      8  CA  MOL d          11.041   5.612  24.449  0.00  0.00     0.283 C 
BRANCH   8   9
ATOM      9  N   MOL d           9.769   6.118  23.864  0.00  0.00    -0.065 N 
ATOM     10  H1  MOL d           9.562   7.028  24.247  0.00  0.00     0.275 HD
ATOM     11  H2  MOL d           9.020   5.482  24.087  0.00  0.00     0.275 HD
ATOM     12  H3  MOL d           9.864   6.188  22.864  0.00  0.00     0.275 HD
ENDBRANCH   8   9
BRANCH   8  13
ATOM     13  C   MOL d          10.841   4.240  25.104  0.00  0.00     0.204 C 
ATOM     14  O   MOL d           9.678   3.856  25.356  0.00  0.00    -0.646 OA
ATOM     15  OXT MOL d          11.856   3.568  25.375  0.00  0.00    -0.646 OA
ENDBRANCH   8  13
ENDBRANCH   7   8
ENDBRANCH   6   7
ENDBRANCH   3   6
ENDBRANCH   1   2
BRANCH   1  16
ATOM     16  CB  MOL d           6.165   6.877  28.020  0.00  0.00     0.109 C 
BRANCH  16  17
ATOM     17  SG  MOL d           5.078   6.574  29.404  0.00  0.00    -0.162 SA
BRANCH  17  18
ATOM     18  CD  MOL d           3.850   5.507  28.622  0.00  0.00     0.112 C 
BRANCH  18  19
ATOM     19  CE  MOL d           3.717   4.156  29.272  0.00  0.00    -0.049 A 
ATOM     20  CZ1 MOL d           4.083   3.003  28.583  0.00  0.00     0.008 A 
ATOM     21  CT1 MOL d           3.962   1.749  29.174  0.00  0.00     0.001 A 
ATOM     22  CH  MOL d           3.470   1.638  30.473  0.00  0.00     0.000 A 
ATOM     23  CT2 MOL d           3.100   2.781  31.171  0.00  0.00     0.001 A 
ATOM     24  CZ2 MOL d           3.225   4.034  30.570  0.00  0.00     0.008 A 
ENDBRANCH  18  19
ENDBRANCH  17  18
ENDBRANCH  16  17
ENDBRANCH   1  16
BRANCH   1  25
ATOM     25  C   MOL d           7.427   4.775  27.939  0.00  0.00     0.242 C 
ATOM     26  O   MOL d           6.769   4.312  27.008  0.00  0.00    -0.271 OA
ATOM     27  N   MOL d           8.021   4.031  28.860  0.00  0.00    -0.341 N 
ATOM     28  H20 MOL d           8.538   4.486  29.585  0.00  0.00     0.163 HD
BRANCH  27  29
ATOM     29  CA  MOL d           7.953   2.581  28.860  0.00  0.00     0.219 C 
BRANCH  29  30
ATOM     30  CB  MOL d           7.537   2.040  30.189  0.00  0.00    -0.025 A 
ATOM     31  CG1 MOL d           6.949   2.861  31.145  0.00  0.00     0.010 A 
ATOM     32  CD1 MOL d           6.496   2.337  32.352  0.00  0.00     0.001 A 
ATOM     33  CE  MOL d           6.631   0.980  32.610  0.00  0.00     0.000 A 
ATOM     34  CD2 MOL d           7.221   0.153  31.663  0.00  0.00     0.001 A 
ATOM     35  CG2 MOL d           7.670   0.685  30.462  0.00  0.00     0.010 A 
ENDBRANCH  29  30
BRANCH  29  36
ATOM     36  C   MOL d           9.167   1.899  28.233  0.00  0.00     0.201 C 
ATOM     37  O   MOL d          10.291   2.280  28.609  0.00  0.00    -0.646 OA
ATOM     38  OXT MOL d           8.989   0.995  27.388  0.00  0.00    -0.646 OA
ENDBRANCH  29  36
ENDBRANCH  27  29
ENDBRANCH   1  25
TORSDOF 14
ENDMDL
MODEL 9
REMARK VINA RESULT:      -7.4      3.865      5.323
REMARK  14 active torsions:
REMARK  status: ('A' for Active; 'I' for Inactive)
REMARK    1  A    between atoms: CA_2  and  N_1 
REMARK    2  A    between atoms: CA_2  and  CB_5 
REMARK    3  A    between atoms: CA_2  and  C_3 
REMARK    4  A    between atoms: CB_5  and  CG_6 
REMARK    5  A    between atoms: CG_6  and  CD_7 
REMARK       I    between atoms: CD_7  and  N_10 
REMARK    6  A    between atoms: N_10  and  CA_11 
REMARK    7  A    between atoms: CA_11  and  CB_12 
REMARK    8  A    between atoms: CA_11  and  C_21 
REMARK    9  A    between atoms: CB_12  and  SG_13 
REMARK   10  A    between atoms: SG_13  and  CD_14 
REMARK   11  A    between atoms: CD_14  and  CE_15 
REMARK       I    between atoms: C_21  and  N_23 
REMARK   12  A    between atoms: N_23  and  CA_24 
REMARK   13  A    between atoms: CA_24  and  CB_25 
REMARK   14  A    between atoms: CA_24  and  C_31 
ROOT
ATOM      1  CA  MOL d           7.735   5.642  25.739  0.00  0.00     0.185 C 
ENDROOT
BRANCH   1   2
ATOM      2  N   MOL d           8.530   4.633  25.052  0.00  0.00    -0.347 N 
ATOM      3  CD  MOL d           9.424   4.937  24.115  0.00  0.00     0.218 C 
ATOM      4  OE1 MOL d           9.695   6.091  23.786  0.00  0.00    -0.274 OA
ATOM      5  H9  MOL d           8.400   3.672  25.296  0.00  0.00     0.163 HD
BRANCH   3   6
ATOM      6  CG  MOL d          10.139   3.760  23.499  0.00  0.00     0.105 C 
BRANCH   6   7
ATOM      7  CB  MOL d          11.201   3.159  24.398  0.00  0.00     0.053 C 
BRANCH   7   8
ATOM      8  CA  MOL d          11.037   1.650  24.582  0.00  0.00     0.283 C 
BRANCH   8   9
ATOM      9  N   MOL d          10.334   1.062  23.409  0.00  0.00    -0.065 N 
ATOM     10  H1  MOL d          10.928   1.122  22.597  0.00  0.00     0.275 HD
ATOM     11  H2  MOL d           9.481   1.572  23.239  0.00  0.00     0.275 HD
ATOM     12  H3  MOL d          10.117   0.096  23.597  0.00  0.00     0.275 HD
ENDBRANCH   8   9
BRANCH   8  13
ATOM     13  C   MOL d          10.284   1.351  25.884  0.00  0.00     0.204 C 
ATOM     14  O   MOL d           9.910   0.180  26.109  0.00  0.00    -0.646 OA
ATOM     15  OXT MOL d          10.061   2.301  26.660  0.00  0.00    -0.646 OA
ENDBRANCH   8  13
ENDBRANCH   7   8
ENDBRANCH   6   7
ENDBRANCH   3   6
ENDBRANCH   1   2
BRANCH   1  16
ATOM     16  CB  MOL d           6.255   5.259  25.702  0.00  0.00     0.109 C 
BRANCH  16  17
ATOM     17  SG  MOL d           5.239   6.192  24.569  0.00  0.00    -0.162 SA
BRANCH  17  18
ATOM     18  CD  MOL d           6.473   7.317  23.882  0.00  0.00     0.112 C 
BRANCH  18  19
ATOM     19  CE  MOL d           6.398   7.460  22.386  0.00  0.00    -0.049 A 
ATOM     20  CZ1 MOL d           5.411   6.796  21.663  0.00  0.00     0.008 A 
ATOM     21  CT1 MOL d           5.333   6.920  20.279  0.00  0.00     0.001 A 
ATOM     22  CH  MOL d           6.252   7.720  19.601  0.00  0.00     0.000 A 
ATOM     23  CT2 MOL d           7.242   8.388  20.311  0.00  0.00     0.001 A 
ATOM     24  CZ2 MOL d           7.311   8.257  21.699  0.00  0.00     0.008 A 
ENDBRANCH  18  19
ENDBRANCH  17  18
ENDBRANCH  16  17
ENDBRANCH   1  16
BRANCH   1  25
ATOM     25  C   MOL d           8.136   5.747  27.198  0.00  0.00     0.242 C 
ATOM     26  O   MOL d           9.222   6.224  27.525  0.00  0.00    -0.271 OA
ATOM     27  N   MOL d           7.260   5.253  28.061  0.00  0.00    -0.341 N 
ATOM     28  H20 MOL d           6.399   4.883  27.713  0.00  0.00     0.163 HD
BRANCH  27  29
ATOM     29  CA  MOL d           7.500   5.228  29.492  0.00  0.00     0.219 C 
BRANCH  29  30
ATOM     30  CB  MOL d           7.316   3.861  30.067  0.00  0.00    -0.025 A 
ATOM     31  CG1 MOL d           7.861   2.744  29.446  0.00  0.00     0.010 A 
ATOM     32  CD1 MOL d           7.750   1.483  30.024  0.00  0.00     0.001 A 
ATOM     33  CE  MOL d           7.088   1.333  31.234  0.00  0.00     0.000 A 
ATOM     34  CD2 MOL d           6.536   2.444  31.860  0.00  0.00     0.001 A 
ATOM     35  CG2 MOL d           6.652   3.698  31.275  0.00  0.00     0.010 A 
ENDBRANCH  29  30
BRANCH  29  36
ATOM     36  C   MOL d           6.811   6.353  30.261  0.00  0.00     0.201 C 
ATOM     37  O   MOL d           5.605   6.553  30.018  0.00  0.00    -0.646 OA
ATOM     38  OXT MOL d           7.467   7.014  31.095  0.00  0.00    -0.646 OA
ENDBRANCH  29  36
ENDBRANCH  27  29
ENDBRANCH   1  25
TORSDOF 14
ENDMDL
MODEL 10
REMARK VINA RESULT:      -7.3      3.362      7.606
REMARK  14 active torsions:
REMARK  status: ('A' for Active; 'I' for Inactive)
REMARK    1  A    between atoms: CA_2  and  N_1 
REMARK    2  A    between atoms: CA_2  and  CB_5 
REMARK    3  A    between atoms: CA_2  and  C_3 
REMARK    4  A    between atoms: CB_5  and  CG_6 
REMARK    5  A    between atoms: CG_6  and  CD_7 
REMARK       I    between atoms: CD_7  and  N_10 
REMARK    6  A    between atoms: N_10  and  CA_11 
REMARK    7  A    between atoms: CA_11  and  CB_12 
REMARK    8  A    between atoms: CA_11  and  C_21 
REMARK    9  A    between atoms: CB_12  and  SG_13 
REMARK   10  A    between atoms: SG_13  and  CD_14 
REMARK   11  A    between atoms: CD_14  and  CE_15 
REMARK       I    between atoms: C_21  and  N_23 
REMARK   12  A    between atoms: N_23  and  CA_24 
REMARK   13  A    between atoms: CA_24  and  CB_25 
REMARK   14  A    between atoms: CA_24  and  C_31 
ROOT
ATOM      1  CA  MOL d          11.138   8.008  25.273  0.00  0.00     0.185 C 
ENDROOT
BRANCH   1   2
ATOM      2  N   MOL d          10.983   8.666  23.983  0.00  0.00    -0.347 N 
ATOM      3  CD  MOL d           9.849   9.248  23.604  0.00  0.00     0.218 C 
ATOM      4  OE1 MOL d           8.855   9.329  24.324  0.00  0.00    -0.274 OA
ATOM      5  H9  MOL d          11.762   8.682  23.356  0.00  0.00     0.163 HD
BRANCH   3   6
ATOM      6  CG  MOL d           9.867   9.861  22.226  0.00  0.00     0.105 C 
BRANCH   6   7
ATOM      7  CB  MOL d          11.002   9.359  21.355  0.00  0.00     0.053 C 
BRANCH   7   8
ATOM      8  CA  MOL d          11.997  10.461  20.985  0.00  0.00     0.283 C 
BRANCH   8   9
ATOM      9  N   MOL d          12.682  10.966  22.205  0.00  0.00    -0.065 N 
ATOM     10  H1  MOL d          13.396  10.312  22.484  0.00  0.00     0.275 HD
ATOM     11  H2  MOL d          12.011  11.068  22.950  0.00  0.00     0.275 HD
ATOM     12  H3  MOL d          13.104  11.860  22.008  0.00  0.00     0.275 HD
ENDBRANCH   8   9
BRANCH   8  13
ATOM     13  C   MOL d          11.280  11.597  20.243  0.00  0.00     0.204 C 
ATOM     14  O   MOL d          11.030  12.656  20.859  0.00  0.00    -0.646 OA
ATOM     15  OXT MOL d          10.959  11.406  19.054  0.00  0.00    -0.646 OA
ENDBRANCH   8  13
ENDBRANCH   7   8
ENDBRANCH   6   7
ENDBRANCH   3   6
ENDBRANCH   1   2
BRANCH   1  16
ATOM     16  CB  MOL d          10.583   6.584  25.207  0.00  0.00     0.109 C 
BRANCH  16  17
ATOM     17  SG  MOL d           9.539   6.093  26.570  0.00  0.00    -0.162 SA
BRANCH  17  18
ATOM     18  CD  MOL d          10.241   4.472  26.944  0.00  0.00     0.112 C 
BRANCH  18  19
ATOM     19  CE  MOL d           9.416   3.661  27.908  0.00  0.00    -0.049 A 
ATOM     20  CZ1 MOL d           9.663   2.301  28.074  0.00  0.00     0.008 A 
ATOM     21  CT1 MOL d           8.906   1.541  28.961  0.00  0.00     0.001 A 
ATOM     22  CH  MOL d           7.886   2.143  29.696  0.00  0.00     0.000 A 
ATOM     23  CT2 MOL d           7.629   3.499  29.538  0.00  0.00     0.001 A 
ATOM     24  CZ2 MOL d           8.394   4.253  28.647  0.00  0.00     0.008 A 
ENDBRANCH  18  19
ENDBRANCH  17  18
ENDBRANCH  16  17
ENDBRANCH   1  16
BRANCH   1  25
ATOM     25  C   MOL d          12.601   7.903  25.654  0.00  0.00     0.242 C 
ATOM     26  O   MOL d          13.007   6.988  26.371  0.00  0.00    -0.271 OA
ATOM     27  N   MOL d          13.375   8.877  25.198  0.00  0.00    -0.341 N 
ATOM     28  H20 MOL d          12.967   9.583  24.620  0.00  0.00     0.163 HD
BRANCH  27  29
ATOM     29  CA  MOL d          14.791   8.961  25.504  0.00  0.00     0.219 C 
BRANCH  29  30
ATOM     30  CB  MOL d          15.069   9.922  26.615  0.00  0.00    -0.025 A 
ATOM     31  CG1 MOL d          15.742   9.515  27.761  0.00  0.00     0.010 A 
ATOM     32  CD1 MOL d          16.064  10.429  28.760  0.00  0.00     0.001 A 
ATOM     33  CE  MOL d          15.710  11.763  28.615  0.00  0.00     0.000 A 
ATOM     34  CD2 MOL d          15.033  12.177  27.476  0.00  0.00     0.001 A 
ATOM     35  CG2 MOL d          14.716  11.257  26.485  0.00  0.00     0.010 A 
ENDBRANCH  29  30
BRANCH  29  36
ATOM     36  C   MOL d          15.687   9.114  24.276  0.00  0.00     0.201 C 
ATOM     37  O   MOL d          16.872   8.745  24.387  0.00  0.00    -0.646 OA
ATOM     38  OXT MOL d          15.205   9.587  23.225  0.00  0.00    -0.646 OA
ENDBRANCH  29  36
ENDBRANCH  27  29
ENDBRANCH   1  25
TORSDOF 14
ENDMDL
