MODEL 1
REMARK VINA RESULT:      -7.3      0.000      0.000
REMARK  13 active torsions:
REMARK  status: ('A' for Active; 'I' for Inactive)
REMARK    1  A    between atoms: CA_2  and  N_1 
REMARK    2  A    between atoms: C_3  and  CA_2 
REMARK    3  A    between atoms: CA_2  and  CB_5 
REMARK       I    between atoms: N_10  and  C_3 
REMARK    4  A    between atoms: CB_5  and  CG_6 
REMARK    5  A    between atoms: CG_6  and  CD_7 
REMARK    6  A    between atoms: CA_11  and  N_10 
REMARK    7  A    between atoms: C_12  and  CA_11 
REMARK    8  A    between atoms: CA_11  and  CB_14 
REMARK       I    between atoms: C_12  and  N_18 
REMARK    9  A    between atoms: CB_14  and  CG_15 
REMARK   10  A    between atoms: N_18  and  CA_19 
REMARK   11  A    between atoms: CA_19  and  C_20 
REMARK   12  A    between atoms: CA_19  and  CB_22 
REMARK   13  A    between atoms: CB_22  and  CG_23 
ROOT
ATOM      1  CA  MOL d          12.409  22.271   3.826  0.00  0.00     0.186 C 
ENDROOT
BRANCH   1   2
ATOM      2  C   MOL d          11.799  22.440   5.206  0.00  0.00     0.241 C 
ATOM      3  O   MOL d          10.893  21.698   5.591  0.00  0.00    -0.271 OA
ATOM      4  N   MOL d          12.340  23.394   5.958  0.00  0.00    -0.345 N 
ATOM      5  H13 MOL d          13.080  23.949   5.577  0.00  0.00     0.163 HD
BRANCH   4   6
ATOM      6  CA  MOL d          11.891  23.658   7.317  0.00  0.00     0.185 C 
BRANCH   6   7
ATOM      7  C   MOL d          10.920  24.820   7.409  0.00  0.00     0.196 C 
ATOM      8  OXT MOL d          10.878  25.626   6.456  0.00  0.00    -0.646 OA
ATOM      9  O   MOL d          10.209  24.914   8.432  0.00  0.00    -0.646 OA
ENDBRANCH   6   7
BRANCH   6  10
ATOM     10  CB  MOL d          13.102  23.915   8.203  0.00  0.00     0.040 C 
BRANCH  10  11
ATOM     11  CG  MOL d          13.878  22.615   8.387  0.00  0.00    -0.020 C 
ATOM     12  CD2 MOL d          13.766  22.151   9.832  0.00  0.00     0.009 C 
ATOM     13  CD1 MOL d          15.300  22.791   7.946  0.00  0.00     0.009 C 
ENDBRANCH  10  11
ENDBRANCH   6  10
ENDBRANCH   4   6
ENDBRANCH   1   2
BRANCH   1  14
ATOM     14  CB  MOL d          11.339  21.998   2.772  0.00  0.00     0.147 C 
BRANCH  14  15
ATOM     15  CG  MOL d          10.645  23.269   2.326  0.00  0.00     0.175 C 
ATOM     16  OD1 MOL d          11.308  24.322   2.335  0.00  0.00    -0.648 OA
ATOM     17  OD2 MOL d           9.459  23.213   1.927  0.00  0.00    -0.648 OA
ENDBRANCH  14  15
ENDBRANCH   1  14
BRANCH   1  18
ATOM     18  N   MOL d          13.357  21.166   3.862  0.00  0.00    -0.345 N 
ATOM     19  C   MOL d          14.627  21.333   4.211  0.00  0.00     0.249 C 
ATOM     20  O   MOL d          15.111  22.437   4.485  0.00  0.00    -0.271 OA
ATOM     21  H9  MOL d          13.040  20.250   3.616  0.00  0.00     0.163 HD
BRANCH  19  22
ATOM     22  CA  MOL d          15.494  20.075   4.195  0.00  0.00     0.275 C 
BRANCH  22  23
ATOM     23  CB  MOL d          14.791  18.937   3.450  0.00  0.00     0.053 C 
BRANCH  23  24
ATOM     24  CG  MOL d          15.674  18.215   2.452  0.00  0.00     0.115 C 
BRANCH  24  25
ATOM     25  CD  MOL d          17.035  17.855   3.015  0.00  0.00     0.172 C 
ATOM     26  OE1 MOL d          18.052  18.393   2.519  0.00  0.00    -0.648 OA
ATOM     27  OE2 MOL d          17.082  17.042   3.966  0.00  0.00    -0.648 OA
ENDBRANCH  24  25
ENDBRANCH  23  24
ENDBRANCH  22  23
BRANCH  22  28
ATOM     28  N   MOL d          15.831  19.662   5.584  0.00  0.00    -0.066 N 
ATOM     29  H1  MOL d          16.226  18.735   5.572  0.00  0.00     0.275 HD
ATOM     30  H2  MOL d          14.995  19.664   6.147  0.00  0.00     0.275 HD
ATOM     31  H3  MOL d          16.501  20.307   5.973  0.00  0.00     0.275 HD
ENDBRANCH  22  28
ENDBRANCH  19  22
ENDBRANCH   1  18
TORSDOF 13
ENDMDL
MODEL 2
REMARK VINA RESULT:      -7.2      2.142      7.123
REMARK  13 active torsions:
REMARK  status: ('A' for Active; 'I' for Inactive)
REMARK    1  A    between atoms: CA_2  and  N_1 
REMARK    2  A    between atoms: C_3  and  CA_2 
REMARK    3  A    between atoms: CA_2  and  CB_5 
REMARK       I    between atoms: N_10  and  C_3 
REMARK    4  A    between atoms: CB_5  and  CG_6 
REMARK    5  A    between atoms: CG_6  and  CD_7 
REMARK    6  A    between atoms: CA_11  and  N_10 
REMARK    7  A    between atoms: C_12  and  CA_11 
REMARK    8  A    between atoms: CA_11  and  CB_14 
REMARK       I    between atoms: C_12  and  N_18 
REMARK    9  A    between atoms: CB_14  and  CG_15 
REMARK   10  A    between atoms: N_18  and  CA_19 
REMARK   11  A    between atoms: CA_19  and  C_20 
REMARK   12  A    between atoms: CA_19  and  CB_22 
REMARK   13  A    between atoms: CB_22  and  CG_23 
ROOT
ATOM      1  CA  MOL d          15.376  22.491   7.174  0.00  0.00     0.186 C 
ENDROOT
BRANCH   1   2
ATOM      2  C   MOL d          15.733  21.058   6.823  0.00  0.00     0.241 C 
ATOM      3  O   MOL d          15.456  20.133   7.590  0.00  0.00    -0.271 OA
ATOM      4  N   MOL d          16.306  20.884   5.636  0.00  0.00    -0.345 N 
ATOM      5  H13 MOL d          16.489  21.685   5.066  0.00  0.00     0.163 HD
BRANCH   4   6
ATOM      6  CA  MOL d          16.677  19.567   5.139  0.00  0.00     0.185 C 
BRANCH   6   7
ATOM      7  C   MOL d          18.127  19.214   5.412  0.00  0.00     0.196 C 
ATOM      8  OXT MOL d          18.922  20.145   5.654  0.00  0.00    -0.646 OA
ATOM      9  O   MOL d          18.455  18.008   5.383  0.00  0.00    -0.646 OA
ENDBRANCH   6   7
BRANCH   6  10
ATOM     10  CB  MOL d          16.392  19.498   3.646  0.00  0.00     0.040 C 
BRANCH  10  11
ATOM     11  CG  MOL d          15.995  18.074   3.273  0.00  0.00    -0.020 C 
ATOM     12  CD2 MOL d          16.813  17.610   2.076  0.00  0.00     0.009 C 
ATOM     13  CD1 MOL d          14.519  17.991   3.030  0.00  0.00     0.009 C 
ENDBRANCH  10  11
ENDBRANCH   6  10
ENDBRANCH   4   6
ENDBRANCH   1   2
BRANCH   1  14
ATOM     14  CB  MOL d          15.440  22.731   8.680  0.00  0.00     0.147 C 
BRANCH  14  15
ATOM     15  CG  MOL d          14.068  22.682   9.321  0.00  0.00     0.175 C 
ATOM     16  OD1 MOL d          13.362  23.705   9.252  0.00  0.00    -0.648 OA
ATOM     17  OD2 MOL d          13.675  21.618   9.852  0.00  0.00    -0.648 OA
ENDBRANCH  14  15
ENDBRANCH   1  14
BRANCH   1  18
ATOM     18  N   MOL d          14.033  22.774   6.687  0.00  0.00    -0.345 N 
ATOM     19  C   MOL d          13.813  23.369   5.520  0.00  0.00     0.249 C 
ATOM     20  O   MOL d          14.722  23.766   4.784  0.00  0.00    -0.271 OA
ATOM     21  H9  MOL d          13.249  22.512   7.250  0.00  0.00     0.163 HD
BRANCH  19  22
ATOM     22  CA  MOL d          12.347  23.599   5.155  0.00  0.00     0.275 C 
BRANCH  22  23
ATOM     23  CB  MOL d          11.664  22.281   4.781  0.00  0.00     0.053 C 
BRANCH  23  24
ATOM     24  CG  MOL d          11.416  22.116   3.294  0.00  0.00     0.115 C 
BRANCH  24  25
ATOM     25  CD  MOL d           9.961  22.306   2.910  0.00  0.00     0.172 C 
ATOM     26  OE1 MOL d           9.495  23.468   2.874  0.00  0.00    -0.648 OA
ATOM     27  OE2 MOL d           9.290  21.287   2.630  0.00  0.00    -0.648 OA
ENDBRANCH  24  25
ENDBRANCH  23  24
ENDBRANCH  22  23
BRANCH  22  28
ATOM     28  N   MOL d          12.240  24.579   4.041  0.00  0.00    -0.066 N 
ATOM     29  H1  MOL d          12.794  24.264   3.261  0.00  0.00     0.275 HD
ATOM     30  H2  MOL d          12.576  25.477   4.351  0.00  0.00     0.275 HD
ATOM     31  H3  MOL d          11.276  24.661   3.756  0.00  0.00     0.275 HD
ENDBRANCH  22  28
ENDBRANCH  19  22
ENDBRANCH   1  18
TORSDOF 13
ENDMDL
MODEL 3
REMARK VINA RESULT:      -7.2      3.742      6.877
REMARK  13 active torsions:
REMARK  status: ('A' for Active; 'I' for Inactive)
REMARK    1  A    between atoms: CA_2  and  N_1 
REMARK    2  A    between atoms: C_3  and  CA_2 
REMARK    3  A    between atoms: CA_2  and  CB_5 
REMARK       I    between atoms: N_10  and  C_3 
REMARK    4  A    between atoms: CB_5  and  CG_6 
REMARK    5  A    between atoms: CG_6  and  CD_7 
REMARK    6  A    between atoms: CA_11  and  N_10 
REMARK    7  A    between atoms: C_12  and  CA_11 
REMARK    8  A    between atoms: CA_11  and  CB_14 
REMARK       I    between atoms: C_12  and  N_18 
REMARK    9  A    between atoms: CB_14  and  CG_15 
REMARK   10  A    between atoms: N_18  and  CA_19 
REMARK   11  A    between atoms: CA_19  and  C_20 
REMARK   12  A    between atoms: CA_19  and  CB_22 
REMARK   13  A    between atoms: CB_22  and  CG_23 
ROOT
ATOM      1  CA  MOL d           9.759  26.123   6.620  0.00  0.00     0.186 C 
ENDROOT
BRANCH   1   2
ATOM      2  C   MOL d          11.010  25.289   6.407  0.00  0.00     0.241 C 
ATOM      3  O   MOL d          11.845  25.608   5.557  0.00  0.00    -0.271 OA
ATOM      4  N   MOL d          11.149  24.247   7.221  0.00  0.00    -0.345 N 
ATOM      5  H13 MOL d          10.432  24.059   7.893  0.00  0.00     0.163 HD
BRANCH   4   6
ATOM      6  CA  MOL d          12.309  23.370   7.168  0.00  0.00     0.185 C 
BRANCH   6   7
ATOM      7  C   MOL d          12.066  22.110   6.358  0.00  0.00     0.196 C 
ATOM      8  OXT MOL d          11.046  21.437   6.613  0.00  0.00    -0.646 OA
ATOM      9  O   MOL d          12.898  21.808   5.476  0.00  0.00    -0.646 OA
ENDBRANCH   6   7
BRANCH   6  10
ATOM     10  CB  MOL d          12.730  23.010   8.586  0.00  0.00     0.040 C 
BRANCH  10  11
ATOM     11  CG  MOL d          14.068  22.279   8.545  0.00  0.00    -0.020 C 
ATOM     12  CD2 MOL d          14.276  21.519   9.846  0.00  0.00     0.009 C 
ATOM     13  CD1 MOL d          15.179  23.242   8.255  0.00  0.00     0.009 C 
ENDBRANCH  10  11
ENDBRANCH   6  10
ENDBRANCH   4   6
ENDBRANCH   1   2
BRANCH   1  14
ATOM     14  CB  MOL d           9.274  26.044   8.065  0.00  0.00     0.147 C 
BRANCH  14  15
ATOM     15  CG  MOL d           8.687  27.357   8.540  0.00  0.00     0.175 C 
ATOM     16  OD1 MOL d           8.876  28.363   7.831  0.00  0.00    -0.648 OA
ATOM     17  OD2 MOL d           8.005  27.382   9.589  0.00  0.00    -0.648 OA
ENDBRANCH  14  15
ENDBRANCH   1  14
BRANCH   1  18
ATOM     18  N   MOL d           8.716  25.645   5.723  0.00  0.00    -0.345 N 
ATOM     19  C   MOL d           8.110  26.442   4.852  0.00  0.00     0.249 C 
ATOM     20  O   MOL d           8.349  27.652   4.765  0.00  0.00    -0.271 OA
ATOM     21  H9  MOL d           8.447  24.683   5.765  0.00  0.00     0.163 HD
BRANCH  19  22
ATOM     22  CA  MOL d           7.034  25.788   3.986  0.00  0.00     0.275 C 
BRANCH  22  23
ATOM     23  CB  MOL d           7.593  24.570   3.247  0.00  0.00     0.053 C 
BRANCH  23  24
ATOM     24  CG  MOL d           8.768  24.885   2.342  0.00  0.00     0.115 C 
BRANCH  24  25
ATOM     25  CD  MOL d          10.041  24.170   2.750  0.00  0.00     0.172 C 
ATOM     26  OE1 MOL d          11.085  24.375   2.089  0.00  0.00    -0.648 OA
ATOM     27  OE2 MOL d           9.997  23.413   3.747  0.00  0.00    -0.648 OA
ENDBRANCH  24  25
ENDBRANCH  23  24
ENDBRANCH  22  23
BRANCH  22  28
ATOM     28  N   MOL d           6.476  26.775   3.022  0.00  0.00    -0.066 N 
ATOM     29  H1  MOL d           6.363  26.338   2.122  0.00  0.00     0.275 HD
ATOM     30  H2  MOL d           7.107  27.557   2.940  0.00  0.00     0.275 HD
ATOM     31  H3  MOL d           5.580  27.099   3.353  0.00  0.00     0.275 HD
ENDBRANCH  22  28
ENDBRANCH  19  22
ENDBRANCH   1  18
TORSDOF 13
ENDMDL
MODEL 4
REMARK VINA RESULT:      -7.1      3.604      4.959
REMARK  13 active torsions:
REMARK  status: ('A' for Active; 'I' for Inactive)
REMARK    1  A    between atoms: CA_2  and  N_1 
REMARK    2  A    between atoms: C_3  and  CA_2 
REMARK    3  A    between atoms: CA_2  and  CB_5 
REMARK       I    between atoms: N_10  and  C_3 
REMARK    4  A    between atoms: CB_5  and  CG_6 
REMARK    5  A    between atoms: CG_6  and  CD_7 
REMARK    6  A    between atoms: CA_11  and  N_10 
REMARK    7  A    between atoms: C_12  and  CA_11 
REMARK    8  A    between atoms: CA_11  and  CB_14 
REMARK       I    between atoms: C_12  and  N_18 
REMARK    9  A    between atoms: CB_14  and  CG_15 
REMARK   10  A    between atoms: N_18  and  CA_19 
REMARK   11  A    between atoms: CA_19  and  C_20 
REMARK   12  A    between atoms: CA_19  and  CB_22 
REMARK   13  A    between atoms: CB_22  and  CG_23 
ROOT
ATOM      1  CA  MOL d          10.689  24.339   3.495  0.00  0.00     0.186 C 
ENDROOT
BRANCH   1   2
ATOM      2  C   MOL d           9.491  24.755   4.330  0.00  0.00     0.241 C 
ATOM      3  O   MOL d           8.409  24.175   4.214  0.00  0.00    -0.271 OA
ATOM      4  N   MOL d           9.713  25.732   5.204  0.00  0.00    -0.345 N 
ATOM      5  H13 MOL d          10.622  26.146   5.245  0.00  0.00     0.163 HD
BRANCH   4   6
ATOM      6  CA  MOL d           8.677  26.220   6.101  0.00  0.00     0.185 C 
BRANCH   6   7
ATOM      7  C   MOL d           7.683  27.142   5.418  0.00  0.00     0.196 C 
ATOM      8  OXT MOL d           8.114  27.928   4.549  0.00  0.00    -0.646 OA
ATOM      9  O   MOL d           6.483  27.069   5.759  0.00  0.00    -0.646 OA
ENDBRANCH   6   7
BRANCH   6  10
ATOM     10  CB  MOL d           9.329  26.931   7.279  0.00  0.00     0.040 C 
BRANCH  10  11
ATOM     11  CG  MOL d           9.294  26.020   8.501  0.00  0.00    -0.020 C 
ATOM     12  CD2 MOL d          10.284  24.879   8.317  0.00  0.00     0.009 C 
ATOM     13  CD1 MOL d           7.898  25.539   8.753  0.00  0.00     0.009 C 
ENDBRANCH  10  11
ENDBRANCH   6  10
ENDBRANCH   4   6
ENDBRANCH   1   2
BRANCH   1  14
ATOM     14  CB  MOL d          10.261  23.565   2.251  0.00  0.00     0.147 C 
BRANCH  14  15
ATOM     15  CG  MOL d          10.451  22.071   2.419  0.00  0.00     0.175 C 
ATOM     16  OD1 MOL d          11.591  21.609   2.227  0.00  0.00    -0.648 OA
ATOM     17  OD2 MOL d           9.482  21.367   2.783  0.00  0.00    -0.648 OA
ENDBRANCH  14  15
ENDBRANCH   1  14
BRANCH   1  18
ATOM     18  N   MOL d          11.568  23.512   4.312  0.00  0.00    -0.345 N 
ATOM     19  C   MOL d          12.644  24.003   4.914  0.00  0.00     0.249 C 
ATOM     20  O   MOL d          13.008  25.178   4.794  0.00  0.00    -0.271 OA
ATOM     21  H9  MOL d          11.353  22.542   4.422  0.00  0.00     0.163 HD
BRANCH  19  22
ATOM     22  CA  MOL d          13.464  23.005   5.730  0.00  0.00     0.275 C 
BRANCH  22  23
ATOM     23  CB  MOL d          12.791  22.715   7.074  0.00  0.00     0.053 C 
BRANCH  23  24
ATOM     24  CG  MOL d          13.551  23.249   8.272  0.00  0.00     0.115 C 
BRANCH  24  25
ATOM     25  CD  MOL d          14.289  22.168   9.038  0.00  0.00     0.172 C 
ATOM     26  OE1 MOL d          13.692  21.576   9.967  0.00  0.00    -0.648 OA
ATOM     27  OE2 MOL d          15.464  21.903   8.697  0.00  0.00    -0.648 OA
ENDBRANCH  24  25
ENDBRANCH  23  24
ENDBRANCH  22  23
BRANCH  22  28
ATOM     28  N   MOL d          14.846  23.517   5.936  0.00  0.00    -0.066 N 
ATOM     29  H1  MOL d          15.232  23.115   6.775  0.00  0.00     0.275 HD
ATOM     30  H2  MOL d          14.821  24.521   6.025  0.00  0.00     0.275 HD
ATOM     31  H3  MOL d          15.420  23.263   5.148  0.00  0.00     0.275 HD
ENDBRANCH  22  28
ENDBRANCH  19  22
ENDBRANCH   1  18
TORSDOF 13
ENDMDL
MODEL 5
REMARK VINA RESULT:      -7.0      2.201      7.796
REMARK  13 active torsions:
REMARK  status: ('A' for Active; 'I' for Inactive)
REMARK    1  A    between atoms: CA_2  and  N_1 
REMARK    2  A    between atoms: C_3  and  CA_2 
REMARK    3  A    between atoms: CA_2  and  CB_5 
REMARK       I    between atoms: N_10  and  C_3 
REMARK    4  A    between atoms: CB_5  and  CG_6 
REMARK    5  A    between atoms: CG_6  and  CD_7 
REMARK    6  A    between atoms: CA_11  and  N_10 
REMARK    7  A    between atoms: C_12  and  CA_11 
REMARK    8  A    between atoms: CA_11  and  CB_14 
REMARK       I    between atoms: C_12  and  N_18 
REMARK    9  A    between atoms: CB_14  and  CG_15 
REMARK   10  A    between atoms: N_18  and  CA_19 
REMARK   11  A    between atoms: CA_19  and  C_20 
REMARK   12  A    between atoms: CA_19  and  CB_22 
REMARK   13  A    between atoms: CB_22  and  CG_23 
ROOT
ATOM      1  CA  MOL d          14.647  22.471   5.912  0.00  0.00     0.186 C 
ENDROOT
BRANCH   1   2
ATOM      2  C   MOL d          14.977  21.026   5.583  0.00  0.00     0.241 C 
ATOM      3  O   MOL d          14.088  20.175   5.510  0.00  0.00    -0.271 OA
ATOM      4  N   MOL d          16.260  20.773   5.338  0.00  0.00    -0.345 N 
ATOM      5  H13 MOL d          16.922  21.520   5.407  0.00  0.00     0.163 HD
BRANCH   4   6
ATOM      6  CA  MOL d          16.733  19.446   4.974  0.00  0.00     0.185 C 
BRANCH   6   7
ATOM      7  C   MOL d          18.159  19.179   5.419  0.00  0.00     0.196 C 
ATOM      8  OXT MOL d          18.518  17.992   5.557  0.00  0.00    -0.646 OA
ATOM      9  O   MOL d          18.905  20.161   5.623  0.00  0.00    -0.646 OA
ENDBRANCH   6   7
BRANCH   6  10
ATOM     10  CB  MOL d          16.610  19.267   3.468  0.00  0.00     0.040 C 
BRANCH  10  11
ATOM     11  CG  MOL d          15.995  17.904   3.169  0.00  0.00    -0.020 C 
ATOM     12  CD2 MOL d          16.845  17.173   2.140  0.00  0.00     0.009 C 
ATOM     13  CD1 MOL d          14.570  18.060   2.735  0.00  0.00     0.009 C 
ENDBRANCH  10  11
ENDBRANCH   6  10
ENDBRANCH   4   6
ENDBRANCH   1   2
BRANCH   1  14
ATOM     14  CB  MOL d          15.156  22.859   7.298  0.00  0.00     0.147 C 
BRANCH  14  15
ATOM     15  CG  MOL d          14.085  22.707   8.359  0.00  0.00     0.175 C 
ATOM     16  OD1 MOL d          13.755  21.551   8.684  0.00  0.00    -0.648 OA
ATOM     17  OD2 MOL d          13.605  23.730   8.897  0.00  0.00    -0.648 OA
ENDBRANCH  14  15
ENDBRANCH   1  14
BRANCH   1  18
ATOM     18  N   MOL d          13.202  22.649   5.850  0.00  0.00    -0.345 N 
ATOM     19  C   MOL d          12.642  23.699   5.262  0.00  0.00     0.249 C 
ATOM     20  O   MOL d          13.297  24.622   4.764  0.00  0.00    -0.271 OA
ATOM     21  H9  MOL d          12.612  21.957   6.266  0.00  0.00     0.163 HD
BRANCH  19  22
ATOM     22  CA  MOL d          11.115  23.741   5.286  0.00  0.00     0.275 C 
BRANCH  22  23
ATOM     23  CB  MOL d          10.587  23.578   6.714  0.00  0.00     0.053 C 
BRANCH  23  24
ATOM     24  CG  MOL d          10.707  24.828   7.562  0.00  0.00     0.115 C 
BRANCH  24  25
ATOM     25  CD  MOL d           9.379  25.527   7.780  0.00  0.00     0.172 C 
ATOM     26  OE1 MOL d           9.152  26.595   7.165  0.00  0.00    -0.648 OA
ATOM     27  OE2 MOL d           8.556  24.996   8.560  0.00  0.00    -0.648 OA
ENDBRANCH  24  25
ENDBRANCH  23  24
ENDBRANCH  22  23
BRANCH  22  28
ATOM     28  N   MOL d          10.555  22.687   4.397  0.00  0.00    -0.066 N 
ATOM     29  H1  MOL d           9.696  22.337   4.791  0.00  0.00     0.275 HD
ATOM     30  H2  MOL d          11.218  21.933   4.313  0.00  0.00     0.275 HD
ATOM     31  H3  MOL d          10.372  23.078   3.486  0.00  0.00     0.275 HD
ENDBRANCH  22  28
ENDBRANCH  19  22
ENDBRANCH   1  18
TORSDOF 13
ENDMDL
MODEL 6
REMARK VINA RESULT:      -7.0      4.562      9.748
REMARK  13 active torsions:
REMARK  status: ('A' for Active; 'I' for Inactive)
REMARK    1  A    between atoms: CA_2  and  N_1 
REMARK    2  A    between atoms: C_3  and  CA_2 
REMARK    3  A    between atoms: CA_2  and  CB_5 
REMARK       I    between atoms: N_10  and  C_3 
REMARK    4  A    between atoms: CB_5  and  CG_6 
REMARK    5  A    between atoms: CG_6  and  CD_7 
REMARK    6  A    between atoms: CA_11  and  N_10 
REMARK    7  A    between atoms: C_12  and  CA_11 
REMARK    8  A    between atoms: CA_11  and  CB_14 
REMARK       I    between atoms: C_12  and  N_18 
REMARK    9  A    between atoms: CB_14  and  CG_15 
REMARK   10  A    between atoms: N_18  and  CA_19 
REMARK   11  A    between atoms: CA_19  and  C_20 
REMARK   12  A    between atoms: CA_19  and  CB_22 
REMARK   13  A    between atoms: CB_22  and  CG_23 
ROOT
ATOM      1  CA  MOL d           9.417  26.205   6.443  0.00  0.00     0.186 C 
ENDROOT
BRANCH   1   2
ATOM      2  C   MOL d           9.904  24.837   5.997  0.00  0.00     0.241 C 
ATOM      3  O   MOL d           9.691  23.837   6.686  0.00  0.00    -0.271 OA
ATOM      4  N   MOL d          10.516  24.803   4.817  0.00  0.00    -0.345 N 
ATOM      5  H13 MOL d          10.641  25.657   4.313  0.00  0.00     0.163 HD
BRANCH   4   6
ATOM      6  CA  MOL d          11.009  23.564   4.235  0.00  0.00     0.185 C 
BRANCH   6   7
ATOM      7  C   MOL d          12.511  23.396   4.376  0.00  0.00     0.196 C 
ATOM      8  OXT MOL d          13.014  22.307   4.031  0.00  0.00    -0.646 OA
ATOM      9  O   MOL d          13.170  24.355   4.829  0.00  0.00    -0.646 OA
ENDBRANCH   6   7
BRANCH   6  10
ATOM     10  CB  MOL d          10.610  23.507   2.767  0.00  0.00     0.040 C 
BRANCH  10  11
ATOM     11  CG  MOL d           9.433  22.552   2.600  0.00  0.00    -0.020 C 
ATOM     12  CD2 MOL d           9.760  21.516   1.535  0.00  0.00     0.009 C 
ATOM     13  CD1 MOL d           8.181  23.317   2.296  0.00  0.00     0.009 C 
ENDBRANCH  10  11
ENDBRANCH   6  10
ENDBRANCH   4   6
ENDBRANCH   1   2
BRANCH   1  14
ATOM     14  CB  MOL d           9.745  26.464   7.911  0.00  0.00     0.147 C 
BRANCH  14  15
ATOM     15  CG  MOL d           8.843  27.520   8.516  0.00  0.00     0.175 C 
ATOM     16  OD1 MOL d           8.961  28.687   8.100  0.00  0.00    -0.648 OA
ATOM     17  OD2 MOL d           7.990  27.183   9.369  0.00  0.00    -0.648 OA
ENDBRANCH  14  15
ENDBRANCH   1  14
BRANCH   1  18
ATOM     18  N   MOL d           7.977  26.281   6.239  0.00  0.00    -0.345 N 
ATOM     19  C   MOL d           7.434  27.042   5.296  0.00  0.00     0.249 C 
ATOM     20  O   MOL d           8.099  27.773   4.554  0.00  0.00    -0.271 OA
ATOM     21  H9  MOL d           7.376  25.742   6.829  0.00  0.00     0.163 HD
BRANCH  19  22
ATOM     22  CA  MOL d           5.909  27.015   5.214  0.00  0.00     0.275 C 
BRANCH  22  23
ATOM     23  CB  MOL d           5.285  27.155   6.605  0.00  0.00     0.053 C 
BRANCH  23  24
ATOM     24  CG  MOL d           3.849  27.642   6.591  0.00  0.00     0.115 C 
BRANCH  24  25
ATOM     25  CD  MOL d           2.851  26.560   6.955  0.00  0.00     0.172 C 
ATOM     26  OE1 MOL d           1.881  26.858   7.688  0.00  0.00    -0.648 OA
ATOM     27  OE2 MOL d           3.034  25.411   6.491  0.00  0.00    -0.648 OA
ENDBRANCH  24  25
ENDBRANCH  23  24
ENDBRANCH  22  23
BRANCH  22  28
ATOM     28  N   MOL d           5.448  25.762   4.557  0.00  0.00    -0.066 N 
ATOM     29  H1  MOL d           5.745  25.758   3.595  0.00  0.00     0.275 HD
ATOM     30  H2  MOL d           4.442  25.712   4.599  0.00  0.00     0.275 HD
ATOM     31  H3  MOL d           5.844  24.967   5.034  0.00  0.00     0.275 HD
ENDBRANCH  22  28
ENDBRANCH  19  22
ENDBRANCH   1  18
TORSDOF 13
ENDMDL
MODEL 7
REMARK VINA RESULT:      -6.9      2.525      5.003
REMARK  13 active torsions:
REMARK  status: ('A' for Active; 'I' for Inactive)
REMARK    1  A    between atoms: CA_2  and  N_1 
REMARK    2  A    between atoms: C_3  and  CA_2 
REMARK    3  A    between atoms: CA_2  and  CB_5 
REMARK       I    between atoms: N_10  and  C_3 
REMARK    4  A    between atoms: CB_5  and  CG_6 
REMARK    5  A    between atoms: CG_6  and  CD_7 
REMARK    6  A    between atoms: CA_11  and  N_10 
REMARK    7  A    between atoms: C_12  and  CA_11 
REMARK    8  A    between atoms: CA_11  and  CB_14 
REMARK       I    between atoms: C_12  and  N_18 
REMARK    9  A    between atoms: CB_14  and  CG_15 
REMARK   10  A    between atoms: N_18  and  CA_19 
REMARK   11  A    between atoms: CA_19  and  C_20 
REMARK   12  A    between atoms: CA_19  and  CB_22 
REMARK   13  A    between atoms: CB_22  and  CG_23 
ROOT
ATOM      1  CA  MOL d          12.064  23.538   7.346  0.00  0.00     0.186 C 
ENDROOT
BRANCH   1   2
ATOM      2  C   MOL d          11.424  24.817   6.837  0.00  0.00     0.241 C 
ATOM      3  O   MOL d          11.882  25.406   5.856  0.00  0.00    -0.271 OA
ATOM      4  N   MOL d          10.332  25.210   7.488  0.00  0.00    -0.345 N 
ATOM      5  H13 MOL d          10.015  24.672   8.269  0.00  0.00     0.163 HD
BRANCH   4   6
ATOM      6  CA  MOL d           9.583  26.396   7.100  0.00  0.00     0.185 C 
BRANCH   6   7
ATOM      7  C   MOL d           9.211  27.277   8.279  0.00  0.00     0.196 C 
ATOM      8  OXT MOL d           9.115  28.506   8.085  0.00  0.00    -0.646 OA
ATOM      9  O   MOL d           9.018  26.729   9.385  0.00  0.00    -0.646 OA
ENDBRANCH   6   7
BRANCH   6  10
ATOM     10  CB  MOL d           8.330  25.972   6.346  0.00  0.00     0.040 C 
BRANCH  10  11
ATOM     11  CG  MOL d           8.511  26.267   4.861  0.00  0.00    -0.020 C 
ATOM     12  CD2 MOL d           7.403  27.194   4.384  0.00  0.00     0.009 C 
ATOM     13  CD1 MOL d           8.572  24.989   4.080  0.00  0.00     0.009 C 
ENDBRANCH  10  11
ENDBRANCH   6  10
ENDBRANCH   4   6
ENDBRANCH   1   2
BRANCH   1  14
ATOM     14  CB  MOL d          13.055  23.819   8.473  0.00  0.00     0.147 C 
BRANCH  14  15
ATOM     15  CG  MOL d          14.079  22.713   8.618  0.00  0.00     0.175 C 
ATOM     16  OD1 MOL d          13.677  21.603   9.016  0.00  0.00    -0.648 OA
ATOM     17  OD2 MOL d          15.269  22.931   8.296  0.00  0.00    -0.648 OA
ENDBRANCH  14  15
ENDBRANCH   1  14
BRANCH   1  18
ATOM     18  N   MOL d          12.749  22.882   6.240  0.00  0.00    -0.345 N 
ATOM     19  C   MOL d          12.335  21.727   5.736  0.00  0.00     0.249 C 
ATOM     20  O   MOL d          11.372  21.099   6.190  0.00  0.00    -0.271 OA
ATOM     21  H9  MOL d          13.559  23.318   5.848  0.00  0.00     0.163 HD
BRANCH  19  22
ATOM     22  CA  MOL d          13.165  21.168   4.582  0.00  0.00     0.275 C 
BRANCH  22  23
ATOM     23  CB  MOL d          14.064  20.025   5.059  0.00  0.00     0.053 C 
BRANCH  23  24
ATOM     24  CG  MOL d          15.482  20.451   5.385  0.00  0.00     0.115 C 
BRANCH  24  25
ATOM     25  CD  MOL d          16.519  19.804   4.488  0.00  0.00     0.172 C 
ATOM     26  OE1 MOL d          16.138  19.252   3.429  0.00  0.00    -0.648 OA
ATOM     27  OE2 MOL d          17.719  19.863   4.839  0.00  0.00    -0.648 OA
ENDBRANCH  24  25
ENDBRANCH  23  24
ENDBRANCH  22  23
BRANCH  22  28
ATOM     28  N   MOL d          13.977  22.248   3.959  0.00  0.00    -0.066 N 
ATOM     29  H1  MOL d          13.365  22.954   3.583  0.00  0.00     0.275 HD
ATOM     30  H2  MOL d          14.538  21.860   3.217  0.00  0.00     0.275 HD
ATOM     31  H3  MOL d          14.578  22.661   4.655  0.00  0.00     0.275 HD
ENDBRANCH  22  28
ENDBRANCH  19  22
ENDBRANCH   1  18
TORSDOF 13
ENDMDL
MODEL 8
REMARK VINA RESULT:      -6.9      1.855      6.929
REMARK  13 active torsions:
REMARK  status: ('A' for Active; 'I' for Inactive)
REMARK    1  A    between atoms: CA_2  and  N_1 
REMARK    2  A    between atoms: C_3  and  CA_2 
REMARK    3  A    between atoms: CA_2  and  CB_5 
REMARK       I    between atoms: N_10  and  C_3 
REMARK    4  A    between atoms: CB_5  and  CG_6 
REMARK    5  A    between atoms: CG_6  and  CD_7 
REMARK    6  A    between atoms: CA_11  and  N_10 
REMARK    7  A    between atoms: C_12  and  CA_11 
REMARK    8  A    between atoms: CA_11  and  CB_14 
REMARK       I    between atoms: C_12  and  N_18 
REMARK    9  A    between atoms: CB_14  and  CG_15 
REMARK   10  A    between atoms: N_18  and  CA_19 
REMARK   11  A    between atoms: CA_19  and  C_20 
REMARK   12  A    between atoms: CA_19  and  CB_22 
REMARK   13  A    between atoms: CB_22  and  CG_23 
ROOT
ATOM      1  CA  MOL d          12.935  21.716   4.794  0.00  0.00     0.186 C 
ENDROOT
BRANCH   1   2
ATOM      2  C   MOL d          14.449  21.626   4.871  0.00  0.00     0.241 C 
ATOM      3  O   MOL d          15.160  22.487   4.347  0.00  0.00    -0.271 OA
ATOM      4  N   MOL d          14.927  20.601   5.571  0.00  0.00    -0.345 N 
ATOM      5  H13 MOL d          14.285  19.950   5.975  0.00  0.00     0.163 HD
BRANCH   4   6
ATOM      6  CA  MOL d          16.354  20.396   5.767  0.00  0.00     0.185 C 
BRANCH   6   7
ATOM      7  C   MOL d          16.949  19.386   4.803  0.00  0.00     0.196 C 
ATOM      8  OXT MOL d          16.165  18.675   4.141  0.00  0.00    -0.646 OA
ATOM      9  O   MOL d          18.194  19.316   4.718  0.00  0.00    -0.646 OA
ENDBRANCH   6   7
BRANCH   6  10
ATOM     10  CB  MOL d          16.603  19.959   7.204  0.00  0.00     0.040 C 
BRANCH  10  11
ATOM     11  CG  MOL d          15.732  20.788   8.142  0.00  0.00    -0.020 C 
ATOM     12  CD2 MOL d          16.374  22.149   8.368  0.00  0.00     0.009 C 
ATOM     13  CD1 MOL d          15.490  20.045   9.421  0.00  0.00     0.009 C 
ENDBRANCH  10  11
ENDBRANCH   6  10
ENDBRANCH   4   6
ENDBRANCH   1   2
BRANCH   1  14
ATOM     14  CB  MOL d          12.441  21.610   3.353  0.00  0.00     0.147 C 
BRANCH  14  15
ATOM     15  CG  MOL d          11.163  22.392   3.132  0.00  0.00     0.175 C 
ATOM     16  OD1 MOL d          10.110  21.921   3.600  0.00  0.00    -0.648 OA
ATOM     17  OD2 MOL d          11.211  23.491   2.535  0.00  0.00    -0.648 OA
ENDBRANCH  14  15
ENDBRANCH   1  14
BRANCH   1  18
ATOM     18  N   MOL d          12.509  22.985   5.368  0.00  0.00    -0.345 N 
ATOM     19  C   MOL d          12.218  23.118   6.657  0.00  0.00     0.249 C 
ATOM     20  O   MOL d          12.241  22.174   7.454  0.00  0.00    -0.271 OA
ATOM     21  H9  MOL d          12.433  23.784   4.771  0.00  0.00     0.163 HD
BRANCH  19  22
ATOM     22  CA  MOL d          11.782  24.513   7.101  0.00  0.00     0.275 C 
BRANCH  22  23
ATOM     23  CB  MOL d          10.273  24.559   7.354  0.00  0.00     0.053 C 
BRANCH  23  24
ATOM     24  CG  MOL d           9.804  25.816   8.060  0.00  0.00     0.115 C 
BRANCH  24  25
ATOM     25  CD  MOL d           9.196  26.835   7.118  0.00  0.00     0.172 C 
ATOM     26  OE1 MOL d           8.818  27.935   7.583  0.00  0.00    -0.648 OA
ATOM     27  OE2 MOL d           9.111  26.537   5.905  0.00  0.00    -0.648 OA
ENDBRANCH  24  25
ENDBRANCH  23  24
ENDBRANCH  22  23
BRANCH  22  28
ATOM     28  N   MOL d          12.173  25.525   6.083  0.00  0.00    -0.066 N 
ATOM     29  H1  MOL d          12.796  26.198   6.501  0.00  0.00     0.275 HD
ATOM     30  H2  MOL d          11.348  25.995   5.744  0.00  0.00     0.275 HD
ATOM     31  H3  MOL d          12.639  25.068   5.316  0.00  0.00     0.275 HD
ENDBRANCH  22  28
ENDBRANCH  19  22
ENDBRANCH   1  18
TORSDOF 13
ENDMDL
MODEL 9
REMARK VINA RESULT:      -6.8      3.620      8.029
REMARK  13 active torsions:
REMARK  status: ('A' for Active; 'I' for Inactive)
REMARK    1  A    between atoms: CA_2  and  N_1 
REMARK    2  A    between atoms: C_3  and  CA_2 
REMARK    3  A    between atoms: CA_2  and  CB_5 
REMARK       I    between atoms: N_10  and  C_3 
REMARK    4  A    between atoms: CB_5  and  CG_6 
REMARK    5  A    between atoms: CG_6  and  CD_7 
REMARK    6  A    between atoms: CA_11  and  N_10 
REMARK    7  A    between atoms: C_12  and  CA_11 
REMARK    8  A    between atoms: CA_11  and  CB_14 
REMARK       I    between atoms: C_12  and  N_18 
REMARK    9  A    between atoms: CB_14  and  CG_15 
REMARK   10  A    between atoms: N_18  and  CA_19 
REMARK   11  A    between atoms: CA_19  and  C_20 
REMARK   12  A    between atoms: CA_19  and  CB_22 
REMARK   13  A    between atoms: CB_22  and  CG_23 
ROOT
ATOM      1  CA  MOL d           9.587  25.784   6.472  0.00  0.00     0.186 C 
ENDROOT
BRANCH   1   2
ATOM      2  C   MOL d          10.788  25.015   5.954  0.00  0.00     0.241 C 
ATOM      3  O   MOL d          11.903  25.541   5.906  0.00  0.00    -0.271 OA
ATOM      4  N   MOL d          10.556  23.750   5.614  0.00  0.00    -0.345 N 
ATOM      5  H13 MOL d           9.625  23.392   5.691  0.00  0.00     0.163 HD
BRANCH   4   6
ATOM      6  CA  MOL d          11.610  22.870   5.133  0.00  0.00     0.185 C 
BRANCH   6   7
ATOM      7  C   MOL d          11.298  22.249   3.784  0.00  0.00     0.196 C 
ATOM      8  OXT MOL d          12.203  22.225   2.925  0.00  0.00    -0.646 OA
ATOM      9  O   MOL d          10.150  21.790   3.599  0.00  0.00    -0.646 OA
ENDBRANCH   6   7
BRANCH   6  10
ATOM     10  CB  MOL d          11.863  21.782   6.166  0.00  0.00     0.040 C 
BRANCH  10  11
ATOM     11  CG  MOL d          13.173  22.069   6.892  0.00  0.00    -0.020 C 
ATOM     12  CD2 MOL d          12.892  22.852   8.166  0.00  0.00     0.009 C 
ATOM     13  CD1 MOL d          14.130  22.775   5.979  0.00  0.00     0.009 C 
ENDBRANCH  10  11
ENDBRANCH   6  10
ENDBRANCH   4   6
ENDBRANCH   1   2
BRANCH   1  14
ATOM     14  CB  MOL d           9.235  25.376   7.901  0.00  0.00     0.147 C 
BRANCH  14  15
ATOM     15  CG  MOL d           8.297  26.366   8.560  0.00  0.00     0.175 C 
ATOM     16  OD1 MOL d           8.802  27.251   9.275  0.00  0.00    -0.648 OA
ATOM     17  OD2 MOL d           7.068  26.292   8.333  0.00  0.00    -0.648 OA
ENDBRANCH  14  15
ENDBRANCH   1  14
BRANCH   1  18
ATOM     18  N   MOL d           8.452  25.532   5.594  0.00  0.00    -0.345 N 
ATOM     19  C   MOL d           7.874  26.496   4.889  0.00  0.00     0.249 C 
ATOM     20  O   MOL d           8.221  27.681   4.955  0.00  0.00    -0.271 OA
ATOM     21  H9  MOL d           8.096  24.600   5.521  0.00  0.00     0.163 HD
BRANCH  19  22
ATOM     22  CA  MOL d           6.692  26.069   4.020  0.00  0.00     0.275 C 
BRANCH  22  23
ATOM     23  CB  MOL d           7.176  25.413   2.724  0.00  0.00     0.053 C 
BRANCH  23  24
ATOM     24  CG  MOL d           6.509  25.951   1.474  0.00  0.00     0.115 C 
BRANCH  24  25
ATOM     25  CD  MOL d           7.353  26.977   0.744  0.00  0.00     0.172 C 
ATOM     26  OE1 MOL d           7.966  27.839   1.415  0.00  0.00    -0.648 OA
ATOM     27  OE2 MOL d           7.413  26.908  -0.505  0.00  0.00    -0.648 OA
ENDBRANCH  24  25
ENDBRANCH  23  24
ENDBRANCH  22  23
BRANCH  22  28
ATOM     28  N   MOL d           5.822  27.239   3.721  0.00  0.00    -0.066 N 
ATOM     29  H1  MOL d           6.383  27.990   3.352  0.00  0.00     0.275 HD
ATOM     30  H2  MOL d           5.367  27.543   4.567  0.00  0.00     0.275 HD
ATOM     31  H3  MOL d           5.126  26.975   3.041  0.00  0.00     0.275 HD
ENDBRANCH  22  28
ENDBRANCH  19  22
ENDBRANCH   1  18
TORSDOF 13
ENDMDL
MODEL 10
REMARK VINA RESULT:      -6.8      1.918      4.489
REMARK  13 active torsions:
REMARK  status: ('A' for Active; 'I' for Inactive)
REMARK    1  A    between atoms: CA_2  and  N_1 
REMARK    2  A    between atoms: C_3  and  CA_2 
REMARK    3  A    between atoms: CA_2  and  CB_5 
REMARK       I    between atoms: N_10  and  C_3 
REMARK    4  A    between atoms: CB_5  and  CG_6 
REMARK    5  A    between atoms: CG_6  and  CD_7 
REMARK    6  A    between atoms: CA_11  and  N_10 
REMARK    7  A    between atoms: C_12  and  CA_11 
REMARK    8  A    between atoms: CA_11  and  CB_14 
REMARK       I    between atoms: C_12  and  N_18 
REMARK    9  A    between atoms: CB_14  and  CG_15 
REMARK   10  A    between atoms: N_18  and  CA_19 
REMARK   11  A    between atoms: CA_19  and  C_20 
REMARK   12  A    between atoms: CA_19  and  CB_22 
REMARK   13  A    between atoms: CB_22  and  CG_23 
ROOT
ATOM      1  CA  MOL d          13.330  22.593   6.831  0.00  0.00     0.186 C 
ENDROOT
BRANCH   1   2
ATOM      2  C   MOL d          12.629  23.655   6.003  0.00  0.00     0.241 C 
ATOM      3  O   MOL d          13.264  24.366   5.221  0.00  0.00    -0.271 OA
ATOM      4  N   MOL d          11.309  23.718   6.150  0.00  0.00    -0.345 N 
ATOM      5  H13 MOL d          10.865  23.099   6.798  0.00  0.00     0.163 HD
BRANCH   4   6
ATOM      6  CA  MOL d          10.489  24.658   5.401  0.00  0.00     0.185 C 
BRANCH   6   7
ATOM      7  C   MOL d           9.515  25.427   6.274  0.00  0.00     0.196 C 
ATOM      8  OXT MOL d           9.146  24.901   7.345  0.00  0.00    -0.646 OA
ATOM      9  O   MOL d           9.131  26.549   5.880  0.00  0.00    -0.646 OA
ENDBRANCH   6   7
BRANCH   6  10
ATOM     10  CB  MOL d           9.737  23.908   4.311  0.00  0.00     0.040 C 
BRANCH  10  11
ATOM     11  CG  MOL d          10.420  24.148   2.969  0.00  0.00    -0.020 C 
ATOM     12  CD2 MOL d           9.380  24.537   1.927  0.00  0.00     0.009 C 
ATOM     13  CD1 MOL d          11.217  22.945   2.567  0.00  0.00     0.009 C 
ENDBRANCH  10  11
ENDBRANCH   6  10
ENDBRANCH   4   6
ENDBRANCH   1   2
BRANCH   1  14
ATOM     14  CB  MOL d          13.902  23.178   8.121  0.00  0.00     0.147 C 
BRANCH  14  15
ATOM     15  CG  MOL d          15.351  22.789   8.326  0.00  0.00     0.175 C 
ATOM     16  OD1 MOL d          15.585  21.659   8.794  0.00  0.00    -0.648 OA
ATOM     17  OD2 MOL d          16.255  23.585   7.983  0.00  0.00    -0.648 OA
ENDBRANCH  14  15
ENDBRANCH   1  14
BRANCH   1  18
ATOM     18  N   MOL d          14.402  22.009   6.038  0.00  0.00    -0.345 N 
ATOM     19  C   MOL d          14.214  20.944   5.267  0.00  0.00     0.249 C 
ATOM     20  O   MOL d          13.136  20.344   5.198  0.00  0.00    -0.271 OA
ATOM     21  H9  MOL d          15.312  22.423   6.075  0.00  0.00     0.163 HD
BRANCH  19  22
ATOM     22  CA  MOL d          15.440  20.450   4.501  0.00  0.00     0.275 C 
BRANCH  22  23
ATOM     23  CB  MOL d          15.219  19.031   3.973  0.00  0.00     0.053 C 
BRANCH  23  24
ATOM     24  CG  MOL d          15.684  18.826   2.545  0.00  0.00     0.115 C 
BRANCH  24  25
ATOM     25  CD  MOL d          17.001  18.079   2.450  0.00  0.00     0.172 C 
ATOM     26  OE1 MOL d          18.039  18.634   2.877  0.00  0.00    -0.648 OA
ATOM     27  OE2 MOL d          16.989  16.928   1.959  0.00  0.00    -0.648 OA
ENDBRANCH  24  25
ENDBRANCH  23  24
ENDBRANCH  22  23
BRANCH  22  28
ATOM     28  N   MOL d          16.647  20.503   5.370  0.00  0.00    -0.066 N 
ATOM     29  H1  MOL d          17.430  20.097   4.883  0.00  0.00     0.275 HD
ATOM     30  H2  MOL d          16.473  19.986   6.218  0.00  0.00     0.275 HD
ATOM     31  H3  MOL d          16.856  21.463   5.598  0.00  0.00     0.275 HD
ENDBRANCH  22  28
ENDBRANCH  19  22
ENDBRANCH   1  18
TORSDOF 13
ENDMDL
