MODEL 1
REMARK VINA RESULT:      -6.9      0.000      0.000
REMARK  9 active torsions:
REMARK  status: ('A' for Active; 'I' for Inactive)
REMARK    1  A    between atoms: C2_11  and  C1_8 
REMARK    2  A    between atoms: C4_13  and  N4_14 
REMARK    3  A    between atoms: C5_15  and  N5_16 
REMARK       I    between atoms: N5_16  and  C10_17 
REMARK    4  A    between atoms: C7_22  and  C6_20 
REMARK    5  A    between atoms: C8_24  and  C7_22 
REMARK    6  A    between atoms: C7_22  and  O7_23 
REMARK    7  A    between atoms: C9_26  and  C8_24 
REMARK    8  A    between atoms: C8_24  and  O8_25 
REMARK    9  A    between atoms: C9_26  and  O9_27 
ROOT
ATOM      1  C2  MOL d          26.207  16.840  61.190  0.00  0.00     0.144 C 
ATOM      2  C3  MOL d          25.184  16.456  62.048  0.00  0.00     0.051 C 
ATOM      3  C4  MOL d          24.942  17.136  63.427  0.00  0.00     0.234 C 
ATOM      4  C5  MOL d          25.495  18.567  63.425  0.00  0.00     0.150 C 
ATOM      5  C6  MOL d          26.946  18.563  62.844  0.00  0.00     0.185 C 
ATOM      6  O6  MOL d          26.939  18.011  61.473  0.00  0.00    -0.335 OA
ENDROOT
BRANCH   5   7
ATOM      7  C7  MOL d          27.586  20.006  62.753  0.00  0.00     0.180 C 
BRANCH   7   8
ATOM      8  C8  MOL d          29.057  19.934  63.201  0.00  0.00     0.173 C 
BRANCH   8   9
ATOM      9  C9  MOL d          29.780  18.675  62.692  0.00  0.00     0.198 C 
BRANCH   9  10
ATOM     10  O9  MOL d          29.928  18.655  61.293  0.00  0.00    -0.398 OA
ATOM     11  H18 MOL d          29.327  19.279  60.903  0.00  0.00     0.209 HD
ENDBRANCH   9  10
ENDBRANCH   8   9
BRANCH   8  12
ATOM     12  O8  MOL d          29.737  21.064  62.749  0.00  0.00    -0.391 OA
ATOM     13  H15 MOL d          29.109  21.733  62.504  0.00  0.00     0.210 HD
ENDBRANCH   8  12
ENDBRANCH   7   8
BRANCH   7  14
ATOM     14  O7  MOL d          27.516  20.446  61.374  0.00  0.00    -0.390 OA
ATOM     15  H13 MOL d          26.706  20.136  60.985  0.00  0.00     0.210 HD
ENDBRANCH   7  14
ENDBRANCH   5   7
BRANCH   4  16
ATOM     16  N5  MOL d          25.510  19.064  64.813  0.00  0.00    -0.352 N 
ATOM     17  H7  MOL d          25.998  18.543  65.514  0.00  0.00     0.163 HD
ATOM     18  C10 MOL d          24.889  20.187  65.152  0.00  0.00     0.214 C 
ATOM     19  C11 MOL d          24.963  20.584  66.607  0.00  0.00     0.117 C 
ATOM     20  O10 MOL d          24.287  20.890  64.341  0.00  0.00    -0.274 OA
ENDBRANCH   4  16
BRANCH   3  21
ATOM     21  N4  MOL d          23.492  17.173  63.629  0.00  0.00    -0.070 N 
ATOM     22  H3  MOL d          23.080  16.329  63.262  0.00  0.00     0.275 HD
ATOM     23  H4  MOL d          23.105  17.971  63.150  0.00  0.00     0.275 HD
ATOM     24  H5  MOL d          23.291  17.244  64.615  0.00  0.00     0.275 HD
ENDBRANCH   3  21
BRANCH   1  25
ATOM     25  C1  MOL d          26.533  16.159  60.019  0.00  0.00     0.233 C 
ATOM     26  O1B MOL d          26.542  14.908  60.004  0.00  0.00    -0.642 OA
ATOM     27  O1A MOL d          26.812  16.839  59.000  0.00  0.00    -0.642 OA
ENDBRANCH   1  25
TORSDOF 9
ENDMDL
MODEL 2
REMARK VINA RESULT:      -6.7      2.052      4.845
REMARK  9 active torsions:
REMARK  status: ('A' for Active; 'I' for Inactive)
REMARK    1  A    between atoms: C2_11  and  C1_8 
REMARK    2  A    between atoms: C4_13  and  N4_14 
REMARK    3  A    between atoms: C5_15  and  N5_16 
REMARK       I    between atoms: N5_16  and  C10_17 
REMARK    4  A    between atoms: C7_22  and  C6_20 
REMARK    5  A    between atoms: C8_24  and  C7_22 
REMARK    6  A    between atoms: C7_22  and  O7_23 
REMARK    7  A    between atoms: C9_26  and  C8_24 
REMARK    8  A    between atoms: C8_24  and  O8_25 
REMARK    9  A    between atoms: C9_26  and  O9_27 
ROOT
ATOM      1  C2  MOL d          24.297  18.631  64.377  0.00  0.00     0.144 C 
ATOM      2  C3  MOL d          23.666  17.554  63.768  0.00  0.00     0.051 C 
ATOM      3  C4  MOL d          24.357  16.674  62.686  0.00  0.00     0.234 C 
ATOM      4  C5  MOL d          25.881  16.728  62.844  0.00  0.00     0.150 C 
ATOM      5  C6  MOL d          26.337  18.216  62.993  0.00  0.00     0.185 C 
ATOM      6  O6  MOL d          25.675  18.831  64.163  0.00  0.00    -0.335 OA
ENDROOT
BRANCH   5   7
ATOM      7  C7  MOL d          27.894  18.373  63.213  0.00  0.00     0.180 C 
BRANCH   7   8
ATOM      8  C8  MOL d          28.399  19.578  62.400  0.00  0.00     0.173 C 
BRANCH   8   9
ATOM      9  C9  MOL d          29.514  20.362  63.114  0.00  0.00     0.198 C 
BRANCH   9  10
ATOM     10  O9  MOL d          29.018  21.348  63.986  0.00  0.00    -0.398 OA
ATOM     11  H18 MOL d          28.074  21.259  64.059  0.00  0.00     0.209 HD
ENDBRANCH   9  10
ENDBRANCH   8   9
BRANCH   8  12
ATOM     12  O8  MOL d          28.870  19.140  61.163  0.00  0.00    -0.391 OA
ATOM     13  H15 MOL d          29.786  19.373  61.074  0.00  0.00     0.210 HD
ENDBRANCH   8  12
ENDBRANCH   7   8
BRANCH   7  14
ATOM     14  O7  MOL d          28.131  18.602  64.624  0.00  0.00    -0.390 OA
ATOM     15  H13 MOL d          27.875  17.831  65.117  0.00  0.00     0.210 HD
ENDBRANCH   7  14
ENDBRANCH   5   7
BRANCH   4  16
ATOM     16  N5  MOL d          26.497  16.132  61.644  0.00  0.00    -0.352 N 
ATOM     17  H7  MOL d          26.549  16.669  60.802  0.00  0.00     0.163 HD
ATOM     18  C10 MOL d          26.982  14.896  61.658  0.00  0.00     0.214 C 
ATOM     19  C11 MOL d          27.574  14.391  60.363  0.00  0.00     0.117 C 
ATOM     20  O10 MOL d          26.972  14.184  62.661  0.00  0.00    -0.274 OA
ENDBRANCH   4  16
BRANCH   3  21
ATOM     21  N4  MOL d          23.892  15.302  62.898  0.00  0.00    -0.070 N 
ATOM     22  H3  MOL d          24.574  14.655  62.534  0.00  0.00     0.275 HD
ATOM     23  H4  MOL d          23.013  15.167  62.422  0.00  0.00     0.275 HD
ATOM     24  H5  MOL d          23.766  15.138  63.885  0.00  0.00     0.275 HD
ENDBRANCH   3  21
BRANCH   1  25
ATOM     25  C1  MOL d          23.657  19.517  65.241  0.00  0.00     0.233 C 
ATOM     26  O1B MOL d          24.217  19.873  66.302  0.00  0.00    -0.642 OA
ATOM     27  O1A MOL d          22.517  19.935  64.918  0.00  0.00    -0.642 OA
ENDBRANCH   1  25
TORSDOF 9
ENDMDL
MODEL 3
REMARK VINA RESULT:      -6.7      2.131      5.733
REMARK  9 active torsions:
REMARK  status: ('A' for Active; 'I' for Inactive)
REMARK    1  A    between atoms: C2_11  and  C1_8 
REMARK    2  A    between atoms: C4_13  and  N4_14 
REMARK    3  A    between atoms: C5_15  and  N5_16 
REMARK       I    between atoms: N5_16  and  C10_17 
REMARK    4  A    between atoms: C7_22  and  C6_20 
REMARK    5  A    between atoms: C8_24  and  C7_22 
REMARK    6  A    between atoms: C7_22  and  O7_23 
REMARK    7  A    between atoms: C9_26  and  C8_24 
REMARK    8  A    between atoms: C8_24  and  O8_25 
REMARK    9  A    between atoms: C9_26  and  O9_27 
ROOT
ATOM      1  C2  MOL d          24.910  19.268  64.832  0.00  0.00     0.144 C 
ATOM      2  C3  MOL d          26.152  19.707  65.270  0.00  0.00     0.051 C 
ATOM      3  C4  MOL d          27.485  19.020  64.851  0.00  0.00     0.234 C 
ATOM      4  C5  MOL d          27.315  18.293  63.511  0.00  0.00     0.150 C 
ATOM      5  C6  MOL d          26.014  17.428  63.549  0.00  0.00     0.185 C 
ATOM      6  O6  MOL d          24.844  18.290  63.820  0.00  0.00    -0.335 OA
ENDROOT
BRANCH   5   7
ATOM      7  C7  MOL d          25.724  16.676  62.189  0.00  0.00     0.180 C 
BRANCH   7   8
ATOM      8  C8  MOL d          24.208  16.460  62.045  0.00  0.00     0.173 C 
BRANCH   8   9
ATOM      9  C9  MOL d          23.839  15.546  60.864  0.00  0.00     0.198 C 
BRANCH   9  10
ATOM     10  O9  MOL d          24.867  14.647  60.525  0.00  0.00    -0.398 OA
ATOM     11  H18 MOL d          24.607  14.143  59.763  0.00  0.00     0.209 HD
ENDBRANCH   9  10
ENDBRANCH   8   9
BRANCH   8  12
ATOM     12  O8  MOL d          23.702  15.911  63.222  0.00  0.00    -0.391 OA
ATOM     13  H15 MOL d          23.914  16.480  63.953  0.00  0.00     0.210 HD
ENDBRANCH   8  12
ENDBRANCH   7   8
BRANCH   7  14
ATOM     14  O7  MOL d          26.206  17.505  61.102  0.00  0.00    -0.390 OA
ATOM     15  H13 MOL d          26.442  16.954  60.365  0.00  0.00     0.210 HD
ENDBRANCH   7  14
ENDBRANCH   5   7
BRANCH   4  16
ATOM     16  N5  MOL d          28.489  17.427  63.299  0.00  0.00    -0.352 N 
ATOM     17  H7  MOL d          28.658  16.668  63.929  0.00  0.00     0.163 HD
ATOM     18  C10 MOL d          29.327  17.632  62.289  0.00  0.00     0.214 C 
ATOM     19  C11 MOL d          30.500  16.688  62.185  0.00  0.00     0.117 C 
ATOM     20  O10 MOL d          29.171  18.531  61.463  0.00  0.00    -0.274 OA
ENDBRANCH   4  16
BRANCH   3  21
ATOM     21  N4  MOL d          28.480  20.084  64.708  0.00  0.00    -0.070 N 
ATOM     22  H3  MOL d          28.168  20.745  64.012  0.00  0.00     0.275 HD
ATOM     23  H4  MOL d          29.361  19.685  64.421  0.00  0.00     0.275 HD
ATOM     24  H5  MOL d          28.598  20.556  65.591  0.00  0.00     0.275 HD
ENDBRANCH   3  21
BRANCH   1  25
ATOM     25  C1  MOL d          23.699  19.773  65.301  0.00  0.00     0.233 C 
ATOM     26  O1B MOL d          23.672  20.473  66.339  0.00  0.00    -0.642 OA
ATOM     27  O1A MOL d          22.657  19.503  64.654  0.00  0.00    -0.642 OA
ENDBRANCH   1  25
TORSDOF 9
ENDMDL
MODEL 4
REMARK VINA RESULT:      -6.5      1.197      1.580
REMARK  9 active torsions:
REMARK  status: ('A' for Active; 'I' for Inactive)
REMARK    1  A    between atoms: C2_11  and  C1_8 
REMARK    2  A    between atoms: C4_13  and  N4_14 
REMARK    3  A    between atoms: C5_15  and  N5_16 
REMARK       I    between atoms: N5_16  and  C10_17 
REMARK    4  A    between atoms: C7_22  and  C6_20 
REMARK    5  A    between atoms: C8_24  and  C7_22 
REMARK    6  A    between atoms: C7_22  and  O7_23 
REMARK    7  A    between atoms: C9_26  and  C8_24 
REMARK    8  A    between atoms: C8_24  and  O8_25 
REMARK    9  A    between atoms: C9_26  and  O9_27 
ROOT
ATOM      1  C2  MOL d          26.323  16.904  61.117  0.00  0.00     0.144 C 
ATOM      2  C3  MOL d          25.111  16.606  61.725  0.00  0.00     0.051 C 
ATOM      3  C4  MOL d          24.716  17.152  63.128  0.00  0.00     0.234 C 
ATOM      4  C5  MOL d          25.466  18.455  63.427  0.00  0.00     0.150 C 
ATOM      5  C6  MOL d          26.984  18.268  63.105  0.00  0.00     0.185 C 
ATOM      6  O6  MOL d          27.155  17.889  61.686  0.00  0.00    -0.335 OA
ENDROOT
BRANCH   5   7
ATOM      7  C7  MOL d          27.838  19.579  63.334  0.00  0.00     0.180 C 
BRANCH   7   8
ATOM      8  C8  MOL d          28.925  19.294  64.385  0.00  0.00     0.173 C 
BRANCH   8   9
ATOM      9  C9  MOL d          29.783  20.528  64.713  0.00  0.00     0.198 C 
BRANCH   9  10
ATOM     10  O9  MOL d          29.059  21.733  64.641  0.00  0.00    -0.398 OA
ATOM     11  H18 MOL d          28.206  21.614  65.041  0.00  0.00     0.209 HD
ENDBRANCH   9  10
ENDBRANCH   8   9
BRANCH   8  12
ATOM     12  O8  MOL d          28.331  18.827  65.556  0.00  0.00    -0.391 OA
ATOM     13  H15 MOL d          27.820  18.051  65.363  0.00  0.00     0.210 HD
ENDBRANCH   8  12
ENDBRANCH   7   8
BRANCH   7  14
ATOM     14  O7  MOL d          28.457  19.941  62.075  0.00  0.00    -0.390 OA
ATOM     15  H13 MOL d          27.900  19.662  61.357  0.00  0.00     0.210 HD
ENDBRANCH   7  14
ENDBRANCH   5   7
BRANCH   4  16
ATOM     16  N5  MOL d          25.291  18.777  64.855  0.00  0.00    -0.352 N 
ATOM     17  H7  MOL d          25.557  18.103  65.545  0.00  0.00     0.163 HD
ATOM     18  C10 MOL d          24.788  19.943  65.245  0.00  0.00     0.214 C 
ATOM     19  C11 MOL d          24.643  20.149  66.734  0.00  0.00     0.117 C 
ATOM     20  O10 MOL d          24.459  20.827  64.456  0.00  0.00    -0.274 OA
ENDBRANCH   4  16
BRANCH   3  21
ATOM     21  N4  MOL d          23.275  17.415  63.086  0.00  0.00    -0.070 N 
ATOM     22  H3  MOL d          23.118  18.392  62.894  0.00  0.00     0.275 HD
ATOM     23  H4  MOL d          22.864  17.177  63.975  0.00  0.00     0.275 HD
ATOM     24  H5  MOL d          22.852  16.857  62.361  0.00  0.00     0.275 HD
ENDBRANCH   3  21
BRANCH   1  25
ATOM     25  C1  MOL d          26.760  16.318  59.931  0.00  0.00     0.233 C 
ATOM     26  O1B MOL d          27.151  15.129  59.926  0.00  0.00    -0.642 OA
ATOM     27  O1A MOL d          26.747  17.017  58.887  0.00  0.00    -0.642 OA
ENDBRANCH   1  25
TORSDOF 9
ENDMDL
MODEL 5
REMARK VINA RESULT:      -6.3      2.614      6.136
REMARK  9 active torsions:
REMARK  status: ('A' for Active; 'I' for Inactive)
REMARK    1  A    between atoms: C2_11  and  C1_8 
REMARK    2  A    between atoms: C4_13  and  N4_14 
REMARK    3  A    between atoms: C5_15  and  N5_16 
REMARK       I    between atoms: N5_16  and  C10_17 
REMARK    4  A    between atoms: C7_22  and  C6_20 
REMARK    5  A    between atoms: C8_24  and  C7_22 
REMARK    6  A    between atoms: C7_22  and  O7_23 
REMARK    7  A    between atoms: C9_26  and  C8_24 
REMARK    8  A    between atoms: C8_24  and  O8_25 
REMARK    9  A    between atoms: C9_26  and  O9_27 
ROOT
ATOM      1  C2  MOL d          28.969  20.739  64.894  0.00  0.00     0.144 C 
ATOM      2  C3  MOL d          29.865  20.082  64.062  0.00  0.00     0.051 C 
ATOM      3  C4  MOL d          29.449  18.893  63.146  0.00  0.00     0.234 C 
ATOM      4  C5  MOL d          27.953  18.968  62.817  0.00  0.00     0.150 C 
ATOM      5  C6  MOL d          27.142  19.212  64.130  0.00  0.00     0.185 C 
ATOM      6  O6  MOL d          27.592  20.464  64.775  0.00  0.00    -0.335 OA
ENDROOT
BRANCH   5   7
ATOM      7  C7  MOL d          25.587  19.355  63.888  0.00  0.00     0.180 C 
BRANCH   7   8
ATOM      8  C8  MOL d          24.866  18.149  64.515  0.00  0.00     0.173 C 
BRANCH   8   9
ATOM      9  C9  MOL d          23.909  17.445  63.537  0.00  0.00     0.198 C 
BRANCH   9  10
ATOM     10  O9  MOL d          22.570  17.850  63.693  0.00  0.00    -0.398 OA
ATOM     11  H18 MOL d          22.248  18.196  62.869  0.00  0.00     0.209 HD
ENDBRANCH   9  10
ENDBRANCH   8   9
BRANCH   8  12
ATOM     12  O8  MOL d          25.808  17.229  64.972  0.00  0.00    -0.391 OA
ATOM     13  H15 MOL d          25.651  17.048  65.891  0.00  0.00     0.210 HD
ENDBRANCH   8  12
ENDBRANCH   7   8
BRANCH   7  14
ATOM     14  O7  MOL d          25.140  20.578  64.525  0.00  0.00    -0.390 OA
ATOM     15  H13 MOL d          24.887  20.392  65.422  0.00  0.00     0.210 HD
ENDBRANCH   7  14
ENDBRANCH   5   7
BRANCH   4  16
ATOM     16  N5  MOL d          27.545  17.691  62.204  0.00  0.00    -0.352 N 
ATOM     17  H7  MOL d          27.358  16.903  62.792  0.00  0.00     0.163 HD
ATOM     18  C10 MOL d          27.422  17.563  60.888  0.00  0.00     0.214 C 
ATOM     19  C11 MOL d          27.013  16.201  60.380  0.00  0.00     0.117 C 
ATOM     20  O10 MOL d          27.615  18.492  60.105  0.00  0.00    -0.274 OA
ENDBRANCH   4  16
BRANCH   3  21
ATOM     21  N4  MOL d          30.228  19.019  61.912  0.00  0.00    -0.070 N 
ATOM     22  H3  MOL d          31.212  18.980  62.131  0.00  0.00     0.275 HD
ATOM     23  H4  MOL d          30.017  19.901  61.470  0.00  0.00     0.275 HD
ATOM     24  H5  MOL d          29.992  18.265  61.286  0.00  0.00     0.275 HD
ENDBRANCH   3  21
BRANCH   1  25
ATOM     25  C1  MOL d          29.341  21.708  65.823  0.00  0.00     0.233 C 
ATOM     26  O1B MOL d          30.236  21.459  66.662  0.00  0.00    -0.642 OA
ATOM     27  O1A MOL d          28.754  22.818  65.786  0.00  0.00    -0.642 OA
ENDBRANCH   1  25
TORSDOF 9
ENDMDL
MODEL 6
REMARK VINA RESULT:      -6.2      3.001      4.988
REMARK  9 active torsions:
REMARK  status: ('A' for Active; 'I' for Inactive)
REMARK    1  A    between atoms: C2_11  and  C1_8 
REMARK    2  A    between atoms: C4_13  and  N4_14 
REMARK    3  A    between atoms: C5_15  and  N5_16 
REMARK       I    between atoms: N5_16  and  C10_17 
REMARK    4  A    between atoms: C7_22  and  C6_20 
REMARK    5  A    between atoms: C8_24  and  C7_22 
REMARK    6  A    between atoms: C7_22  and  O7_23 
REMARK    7  A    between atoms: C9_26  and  C8_24 
REMARK    8  A    between atoms: C8_24  and  O8_25 
REMARK    9  A    between atoms: C9_26  and  O9_27 
ROOT
ATOM      1  C2  MOL d          27.595  17.942  60.359  0.00  0.00     0.144 C 
ATOM      2  C3  MOL d          28.542  18.637  61.100  0.00  0.00     0.051 C 
ATOM      3  C4  MOL d          28.593  18.595  62.655  0.00  0.00     0.234 C 
ATOM      4  C5  MOL d          27.954  17.302  63.178  0.00  0.00     0.150 C 
ATOM      5  C6  MOL d          26.576  17.081  62.474  0.00  0.00     0.185 C 
ATOM      6  O6  MOL d          26.764  17.007  61.010  0.00  0.00    -0.335 OA
ENDROOT
BRANCH   5   7
ATOM      7  C7  MOL d          25.859  15.742  62.912  0.00  0.00     0.180 C 
BRANCH   7   8
ATOM      8  C8  MOL d          24.839  15.340  61.832  0.00  0.00     0.173 C 
BRANCH   8   9
ATOM      9  C9  MOL d          23.948  14.160  62.256  0.00  0.00     0.198 C 
BRANCH   9  10
ATOM     10  O9  MOL d          24.612  12.921  62.194  0.00  0.00    -0.398 OA
ATOM     11  H18 MOL d          24.905  12.676  63.065  0.00  0.00     0.209 HD
ENDBRANCH   9  10
ENDBRANCH   8   9
BRANCH   8  12
ATOM     12  O8  MOL d          24.032  16.433  61.524  0.00  0.00    -0.391 OA
ATOM     13  H15 MOL d          24.147  17.106  62.184  0.00  0.00     0.210 HD
ENDBRANCH   8  12
ENDBRANCH   7   8
BRANCH   7  14
ATOM     14  O7  MOL d          26.869  14.710  63.040  0.00  0.00    -0.390 OA
ATOM     15  H13 MOL d          27.216  14.715  63.925  0.00  0.00     0.210 HD
ENDBRANCH   7  14
ENDBRANCH   5   7
BRANCH   4  16
ATOM     16  N5  MOL d          27.760  17.434  64.634  0.00  0.00    -0.352 N 
ATOM     17  H7  MOL d          26.999  17.984  64.978  0.00  0.00     0.163 HD
ATOM     18  C10 MOL d          28.575  16.837  65.496  0.00  0.00     0.214 C 
ATOM     19  C11 MOL d          28.282  17.059  66.961  0.00  0.00     0.117 C 
ATOM     20  O10 MOL d          29.518  16.128  65.146  0.00  0.00    -0.274 OA
ENDBRANCH   4  16
BRANCH   3  21
ATOM     21  N4  MOL d          30.008  18.627  63.031  0.00  0.00    -0.070 N 
ATOM     22  H3  MOL d          30.395  17.698  62.966  0.00  0.00     0.275 HD
ATOM     23  H4  MOL d          30.097  18.963  63.977  0.00  0.00     0.275 HD
ATOM     24  H5  MOL d          30.508  19.244  62.408  0.00  0.00     0.275 HD
ENDBRANCH   3  21
BRANCH   1  25
ATOM     25  C1  MOL d          27.439  18.073  58.981  0.00  0.00     0.233 C 
ATOM     26  O1B MOL d          28.115  18.918  58.352  0.00  0.00    -0.642 OA
ATOM     27  O1A MOL d          26.609  17.324  58.408  0.00  0.00    -0.642 OA
ENDBRANCH   1  25
TORSDOF 9
ENDMDL
MODEL 7
REMARK VINA RESULT:      -6.1      2.329      5.490
REMARK  9 active torsions:
REMARK  status: ('A' for Active; 'I' for Inactive)
REMARK    1  A    between atoms: C2_11  and  C1_8 
REMARK    2  A    between atoms: C4_13  and  N4_14 
REMARK    3  A    between atoms: C5_15  and  N5_16 
REMARK       I    between atoms: N5_16  and  C10_17 
REMARK    4  A    between atoms: C7_22  and  C6_20 
REMARK    5  A    between atoms: C8_24  and  C7_22 
REMARK    6  A    between atoms: C7_22  and  O7_23 
REMARK    7  A    between atoms: C9_26  and  C8_24 
REMARK    8  A    between atoms: C8_24  and  O8_25 
REMARK    9  A    between atoms: C9_26  and  O9_27 
ROOT
ATOM      1  C2  MOL d          28.801  18.594  63.457  0.00  0.00     0.144 C 
ATOM      2  C3  MOL d          29.138  17.308  63.056  0.00  0.00     0.051 C 
ATOM      3  C4  MOL d          28.096  16.156  62.955  0.00  0.00     0.234 C 
ATOM      4  C5  MOL d          26.688  16.724  62.735  0.00  0.00     0.150 C 
ATOM      5  C6  MOL d          26.425  17.875  63.758  0.00  0.00     0.185 C 
ATOM      6  O6  MOL d          27.441  18.937  63.594  0.00  0.00    -0.335 OA
ENDROOT
BRANCH   5   7
ATOM      7  C7  MOL d          25.012  18.561  63.577  0.00  0.00     0.180 C 
BRANCH   7   8
ATOM      8  C8  MOL d          24.096  18.143  64.740  0.00  0.00     0.173 C 
BRANCH   8   9
ATOM      9  C9  MOL d          23.534  19.342  65.524  0.00  0.00     0.198 C 
BRANCH   9  10
ATOM     10  O9  MOL d          22.432  19.944  64.890  0.00  0.00    -0.398 OA
ATOM     11  H18 MOL d          21.812  20.239  65.547  0.00  0.00     0.209 HD
ENDBRANCH   9  10
ENDBRANCH   8   9
BRANCH   8  12
ATOM     12  O8  MOL d          23.037  17.383  64.248  0.00  0.00    -0.391 OA
ATOM     13  H15 MOL d          22.239  17.620  64.706  0.00  0.00     0.210 HD
ENDBRANCH   8  12
ENDBRANCH   7   8
BRANCH   7  14
ATOM     14  O7  MOL d          25.202  19.998  63.595  0.00  0.00    -0.390 OA
ATOM     15  H13 MOL d          26.112  20.199  63.413  0.00  0.00     0.210 HD
ENDBRANCH   7  14
ENDBRANCH   5   7
BRANCH   4  16
ATOM     16  N5  MOL d          25.711  15.639  62.935  0.00  0.00    -0.352 N 
ATOM     17  H7  MOL d          25.709  15.136  63.800  0.00  0.00     0.163 HD
ATOM     18  C10 MOL d          24.833  15.315  61.993  0.00  0.00     0.214 C 
ATOM     19  C11 MOL d          23.893  14.177  62.311  0.00  0.00     0.117 C 
ATOM     20  O10 MOL d          24.762  15.903  60.915  0.00  0.00    -0.274 OA
ENDBRANCH   4  16
BRANCH   3  21
ATOM     21  N4  MOL d          28.480  15.340  61.801  0.00  0.00    -0.070 N 
ATOM     22  H3  MOL d          28.063  15.721  60.966  0.00  0.00     0.275 HD
ATOM     23  H4  MOL d          28.159  14.394  61.936  0.00  0.00     0.275 HD
ATOM     24  H5  MOL d          29.484  15.343  61.707  0.00  0.00     0.275 HD
ENDBRANCH   3  21
BRANCH   1  25
ATOM     25  C1  MOL d          29.733  19.603  63.691  0.00  0.00     0.233 C 
ATOM     26  O1B MOL d          29.776  20.603  62.940  0.00  0.00    -0.642 OA
ATOM     27  O1A MOL d          30.513  19.469  64.667  0.00  0.00    -0.642 OA
ENDBRANCH   1  25
TORSDOF 9
ENDMDL
MODEL 8
REMARK VINA RESULT:      -5.9      2.457      5.069
REMARK  9 active torsions:
REMARK  status: ('A' for Active; 'I' for Inactive)
REMARK    1  A    between atoms: C2_11  and  C1_8 
REMARK    2  A    between atoms: C4_13  and  N4_14 
REMARK    3  A    between atoms: C5_15  and  N5_16 
REMARK       I    between atoms: N5_16  and  C10_17 
REMARK    4  A    between atoms: C7_22  and  C6_20 
REMARK    5  A    between atoms: C8_24  and  C7_22 
REMARK    6  A    between atoms: C7_22  and  O7_23 
REMARK    7  A    between atoms: C9_26  and  C8_24 
REMARK    8  A    between atoms: C8_24  and  O8_25 
REMARK    9  A    between atoms: C9_26  and  O9_27 
ROOT
ATOM      1  C2  MOL d          24.810  19.043  65.682  0.00  0.00     0.144 C 
ATOM      2  C3  MOL d          25.762  19.106  66.691  0.00  0.00     0.051 C 
ATOM      3  C4  MOL d          27.172  18.460  66.560  0.00  0.00     0.234 C 
ATOM      4  C5  MOL d          27.571  18.336  65.084  0.00  0.00     0.150 C 
ATOM      5  C6  MOL d          26.389  17.709  64.276  0.00  0.00     0.185 C 
ATOM      6  O6  MOL d          25.181  18.550  64.416  0.00  0.00    -0.335 OA
ENDROOT
BRANCH   5   7
ATOM      7  C7  MOL d          26.686  17.586  62.729  0.00  0.00     0.180 C 
BRANCH   7   8
ATOM      8  C8  MOL d          27.193  18.940  62.203  0.00  0.00     0.173 C 
BRANCH   8   9
ATOM      9  C9  MOL d          28.113  18.804  60.978  0.00  0.00     0.198 C 
BRANCH   9  10
ATOM     10  O9  MOL d          29.474  18.710  61.321  0.00  0.00    -0.398 OA
ATOM     11  H18 MOL d          29.936  19.471  60.988  0.00  0.00     0.209 HD
ENDBRANCH   9  10
ENDBRANCH   8   9
BRANCH   8  12
ATOM     12  O8  MOL d          26.107  19.748  61.871  0.00  0.00    -0.391 OA
ATOM     13  H15 MOL d          25.310  19.233  61.904  0.00  0.00     0.210 HD
ENDBRANCH   8  12
ENDBRANCH   7   8
BRANCH   7  14
ATOM     14  O7  MOL d          27.707  16.575  62.543  0.00  0.00    -0.390 OA
ATOM     15  H13 MOL d          27.462  15.788  63.015  0.00  0.00     0.210 HD
ENDBRANCH   7  14
ENDBRANCH   5   7
BRANCH   4  16
ATOM     16  N5  MOL d          28.759  17.468  64.993  0.00  0.00    -0.352 N 
ATOM     17  H7  MOL d          28.676  16.499  65.227  0.00  0.00     0.163 HD
ATOM     18  C10 MOL d          29.937  17.946  64.607  0.00  0.00     0.214 C 
ATOM     19  C11 MOL d          31.081  16.962  64.568  0.00  0.00     0.117 C 
ATOM     20  O10 MOL d          30.109  19.121  64.284  0.00  0.00    -0.274 OA
ENDBRANCH   4  16
BRANCH   3  21
ATOM     21  N4  MOL d          28.110  19.351  67.247  0.00  0.00    -0.070 N 
ATOM     22  H3  MOL d          28.222  19.048  68.202  0.00  0.00     0.275 HD
ATOM     23  H4  MOL d          27.749  20.293  67.233  0.00  0.00     0.275 HD
ATOM     24  H5  MOL d          29.002  19.327  66.778  0.00  0.00     0.275 HD
ENDBRANCH   3  21
BRANCH   1  25
ATOM     25  C1  MOL d          23.497  19.487  65.827  0.00  0.00     0.233 C 
ATOM     26  O1B MOL d          22.934  19.427  66.943  0.00  0.00    -0.642 OA
ATOM     27  O1A MOL d          22.914  19.942  64.811  0.00  0.00    -0.642 OA
ENDBRANCH   1  25
TORSDOF 9
ENDMDL
MODEL 9
REMARK VINA RESULT:      -5.9      2.489      5.221
REMARK  9 active torsions:
REMARK  status: ('A' for Active; 'I' for Inactive)
REMARK    1  A    between atoms: C2_11  and  C1_8 
REMARK    2  A    between atoms: C4_13  and  N4_14 
REMARK    3  A    between atoms: C5_15  and  N5_16 
REMARK       I    between atoms: N5_16  and  C10_17 
REMARK    4  A    between atoms: C7_22  and  C6_20 
REMARK    5  A    between atoms: C8_24  and  C7_22 
REMARK    6  A    between atoms: C7_22  and  O7_23 
REMARK    7  A    between atoms: C9_26  and  C8_24 
REMARK    8  A    between atoms: C8_24  and  O8_25 
REMARK    9  A    between atoms: C9_26  and  O9_27 
ROOT
ATOM      1  C2  MOL d          27.862  19.538  63.837  0.00  0.00     0.144 C 
ATOM      2  C3  MOL d          26.578  19.277  63.377  0.00  0.00     0.051 C 
ATOM      3  C4  MOL d          26.267  18.168  62.330  0.00  0.00     0.234 C 
ATOM      4  C5  MOL d          27.345  17.078  62.366  0.00  0.00     0.150 C 
ATOM      5  C6  MOL d          28.759  17.743  62.346  0.00  0.00     0.185 C 
ATOM      6  O6  MOL d          28.906  18.652  63.502  0.00  0.00    -0.335 OA
ENDROOT
BRANCH   5   7
ATOM      7  C7  MOL d          29.943  16.698  62.432  0.00  0.00     0.180 C 
BRANCH   7   8
ATOM      8  C8  MOL d          31.260  17.449  62.691  0.00  0.00     0.173 C 
BRANCH   8   9
ATOM      9  C9  MOL d          31.786  17.266  64.125  0.00  0.00     0.198 C 
BRANCH   9  10
ATOM     10  O9  MOL d          31.011  17.945  65.084  0.00  0.00    -0.398 OA
ATOM     11  H18 MOL d          30.274  17.401  65.337  0.00  0.00     0.209 HD
ENDBRANCH   9  10
ENDBRANCH   8   9
BRANCH   8  12
ATOM     12  O8  MOL d          32.230  17.011  61.791  0.00  0.00    -0.391 OA
ATOM     13  H15 MOL d          31.903  17.106  60.904  0.00  0.00     0.210 HD
ENDBRANCH   8  12
ENDBRANCH   7   8
BRANCH   7  14
ATOM     14  O7  MOL d          29.669  15.795  63.532  0.00  0.00    -0.390 OA
ATOM     15  H13 MOL d          28.750  15.556  63.524  0.00  0.00     0.210 HD
ENDBRANCH   7  14
ENDBRANCH   5   7
BRANCH   4  16
ATOM     16  N5  MOL d          27.177  16.215  61.183  0.00  0.00    -0.352 N 
ATOM     17  H7  MOL d          27.114  16.635  60.277  0.00  0.00     0.163 HD
ATOM     18  C10 MOL d          27.108  14.894  61.293  0.00  0.00     0.214 C 
ATOM     19  C11 MOL d          26.921  14.120  60.010  0.00  0.00     0.117 C 
ATOM     20  O10 MOL d          27.200  14.307  62.371  0.00  0.00    -0.274 OA
ENDBRANCH   4  16
BRANCH   3  21
ATOM     21  N4  MOL d          24.974  17.589  62.700  0.00  0.00    -0.070 N 
ATOM     22  H3  MOL d          24.335  18.328  62.953  0.00  0.00     0.275 HD
ATOM     23  H4  MOL d          25.095  16.968  63.485  0.00  0.00     0.275 HD
ATOM     24  H5  MOL d          24.600  17.074  61.919  0.00  0.00     0.275 HD
ENDBRANCH   3  21
BRANCH   1  25
ATOM     25  C1  MOL d          28.186  20.612  64.663  0.00  0.00     0.233 C 
ATOM     26  O1B MOL d          27.540  20.810  65.716  0.00  0.00    -0.642 OA
ATOM     27  O1A MOL d          29.134  21.359  64.314  0.00  0.00    -0.642 OA
ENDBRANCH   1  25
TORSDOF 9
ENDMDL
MODEL 10
REMARK VINA RESULT:      -5.8      2.381      4.965
REMARK  9 active torsions:
REMARK  status: ('A' for Active; 'I' for Inactive)
REMARK    1  A    between atoms: C2_11  and  C1_8 
REMARK    2  A    between atoms: C4_13  and  N4_14 
REMARK    3  A    between atoms: C5_15  and  N5_16 
REMARK       I    between atoms: N5_16  and  C10_17 
REMARK    4  A    between atoms: C7_22  and  C6_20 
REMARK    5  A    between atoms: C8_24  and  C7_22 
REMARK    6  A    between atoms: C7_22  and  O7_23 
REMARK    7  A    between atoms: C9_26  and  C8_24 
REMARK    8  A    between atoms: C8_24  and  O8_25 
REMARK    9  A    between atoms: C9_26  and  O9_27 
ROOT
ATOM      1  C2  MOL d          24.739  18.968  64.306  0.00  0.00     0.144 C 
ATOM      2  C3  MOL d          23.978  17.945  63.757  0.00  0.00     0.051 C 
ATOM      3  C4  MOL d          24.546  16.937  62.716  0.00  0.00     0.234 C 
ATOM      4  C5  MOL d          26.068  16.818  62.860  0.00  0.00     0.150 C 
ATOM      5  C6  MOL d          26.698  18.246  62.930  0.00  0.00     0.185 C 
ATOM      6  O6  MOL d          26.129  18.993  64.072  0.00  0.00    -0.335 OA
ENDROOT
BRANCH   5   7
ATOM      7  C7  MOL d          28.266  18.229  63.130  0.00  0.00     0.180 C 
BRANCH   7   8
ATOM      8  C8  MOL d          28.618  17.262  64.274  0.00  0.00     0.173 C 
BRANCH   8   9
ATOM      9  C9  MOL d          30.050  16.709  64.174  0.00  0.00     0.198 C 
BRANCH   9  10
ATOM     10  O9  MOL d          30.371  15.826  65.223  0.00  0.00    -0.398 OA
ATOM     11  H18 MOL d          30.283  16.279  66.054  0.00  0.00     0.209 HD
ENDBRANCH   9  10
ENDBRANCH   8   9
BRANCH   8  12
ATOM     12  O8  MOL d          28.464  17.912  65.497  0.00  0.00    -0.391 OA
ATOM     13  H15 MOL d          28.712  18.824  65.404  0.00  0.00     0.210 HD
ENDBRANCH   8  12
ENDBRANCH   7   8
BRANCH   7  14
ATOM     14  O7  MOL d          28.874  17.771  61.897  0.00  0.00    -0.390 OA
ATOM     15  H13 MOL d          28.322  17.108  61.500  0.00  0.00     0.210 HD
ENDBRANCH   7  14
ENDBRANCH   5   7
BRANCH   4  16
ATOM     16  N5  MOL d          26.593  16.093  61.688  0.00  0.00    -0.352 N 
ATOM     17  H7  MOL d          26.661  16.568  60.810  0.00  0.00     0.163 HD
ATOM     18  C10 MOL d          26.976  14.825  61.773  0.00  0.00     0.214 C 
ATOM     19  C11 MOL d          27.481  14.188  60.501  0.00  0.00     0.117 C 
ATOM     20  O10 MOL d          26.940  14.184  62.823  0.00  0.00    -0.274 OA
ENDBRANCH   4  16
BRANCH   3  21
ATOM     21  N4  MOL d          23.925  15.641  63.002  0.00  0.00    -0.070 N 
ATOM     22  H3  MOL d          23.182  15.766  63.672  0.00  0.00     0.275 HD
ATOM     23  H4  MOL d          24.617  15.013  63.381  0.00  0.00     0.275 HD
ATOM     24  H5  MOL d          23.550  15.253  62.151  0.00  0.00     0.275 HD
ENDBRANCH   3  21
BRANCH   1  25
ATOM     25  C1  MOL d          24.219  19.966  65.128  0.00  0.00     0.233 C 
ATOM     26  O1B MOL d          24.910  20.971  65.407  0.00  0.00    -0.642 OA
ATOM     27  O1A MOL d          23.052  19.818  65.569  0.00  0.00    -0.642 OA
ENDBRANCH   1  25
TORSDOF 9
ENDMDL
