MODEL 1
REMARK VINA RESULT:      -8.1      0.000      0.000
REMARK  10 active torsions:
REMARK  status: ('A' for Active; 'I' for Inactive)
REMARK    1  A    between atoms: C3_3  and  C10_10 
REMARK    2  A    between atoms: C6_6  and  N7_7 
REMARK    3  A    between atoms: C10_10  and  N11_11 
REMARK    4  A    between atoms: N11_11  and  C17_17 
REMARK    5  A    between atoms: N11_11  and  C12_12 
REMARK    6  A    between atoms: C12_12  and  P13_13 
REMARK    7  A    between atoms: C17_17  and  C18_18 
REMARK    8  A    between atoms: C18_18  and  C19_19 
REMARK    9  A    between atoms: C19_19  and  C20_20 
REMARK   10  A    between atoms: C20_20  and  C21_21 
ROOT
ATOM      1  N11 AAH d         -24.231  40.410  16.285  0.00  0.00    -0.055 N 
ATOM      2  H7  AAH d         -24.617  39.669  16.850  0.00  0.00     0.281 HD
ENDROOT
BRANCH   1   3
ATOM      3  C10 AAH d         -22.896  39.889  15.918  0.00  0.00     0.274 C 
BRANCH   3   4
ATOM      4  C3  AAH d         -22.666  38.414  16.240  0.00  0.00    -0.032 C 
ATOM      5  C2  AAH d         -23.669  37.697  16.947  0.00  0.00     0.011 C 
ATOM      6  C1  AAH d         -23.537  36.313  17.103  0.00  0.00     0.037 C 
ATOM      7  C6  AAH d         -22.332  35.680  16.770  0.00  0.00     0.102 C 
ATOM      8  C5  AAH d         -21.324  36.393  16.134  0.00  0.00     0.037 C 
ATOM      9  C4  AAH d         -21.513  37.760  15.849  0.00  0.00     0.011 C 
BRANCH   7  10
ATOM     10  N7  AAH d         -22.147  34.229  17.091  0.00  0.00    -0.116 N 
ATOM     11  O9  AAH d         -22.886  33.674  17.840  0.00  0.00    -0.532 OA
ATOM     12  O8  AAH d         -21.148  33.681  16.793  0.00  0.00    -0.532 OA
ENDBRANCH   7  10
ENDBRANCH   3   4
ENDBRANCH   1   3
BRANCH   1  13
ATOM     13  C17 AAH d         -24.267  41.631  17.235  0.00  0.00     0.236 C 
BRANCH  13  14
ATOM     14  C18 AAH d         -23.856  41.271  18.673  0.00  0.00     0.028 C 
BRANCH  14  15
ATOM     15  C19 AAH d         -24.366  42.331  19.664  0.00  0.00     0.012 C 
BRANCH  15  16
ATOM     16  C20 AAH d         -25.473  41.724  20.537  0.00  0.00     0.113 C 
BRANCH  16  17
ATOM     17  C21 AAH d         -26.828  42.234  20.077  0.00  0.00     0.172 C 
ATOM     18  O23 AAH d         -27.324  41.767  19.058  0.00  0.00    -0.648 OA
ATOM     19  O22 AAH d         -27.493  43.214  20.787  0.00  0.00    -0.648 OA
ENDBRANCH  16  17
ENDBRANCH  15  16
ENDBRANCH  14  15
ENDBRANCH  13  14
ENDBRANCH   1  13
BRANCH   1  20
ATOM     20  C12 AAH d         -25.199  40.517  15.126  0.00  0.00     0.380 C 
BRANCH  20  21
ATOM     21  P13 AAH d         -26.741  39.490  15.127  0.00  0.00     0.286 P 
ATOM     22  O16 AAH d         -26.364  38.239  14.500  0.00  0.00    -0.638 OA
ATOM     23  O15 AAH d         -27.960  40.150  14.297  0.00  0.00    -0.638 OA
ATOM     24  O14 AAH d         -27.274  39.224  16.573  0.00  0.00    -0.638 OA
ENDBRANCH  20  21
ENDBRANCH   1  20
TORSDOF 10
ENDMDL
MODEL 2
REMARK VINA RESULT:      -8.0      1.125      1.642
REMARK  10 active torsions:
REMARK  status: ('A' for Active; 'I' for Inactive)
REMARK    1  A    between atoms: C3_3  and  C10_10 
REMARK    2  A    between atoms: C6_6  and  N7_7 
REMARK    3  A    between atoms: C10_10  and  N11_11 
REMARK    4  A    between atoms: N11_11  and  C17_17 
REMARK    5  A    between atoms: N11_11  and  C12_12 
REMARK    6  A    between atoms: C12_12  and  P13_13 
REMARK    7  A    between atoms: C17_17  and  C18_18 
REMARK    8  A    between atoms: C18_18  and  C19_19 
REMARK    9  A    between atoms: C19_19  and  C20_20 
REMARK   10  A    between atoms: C20_20  and  C21_21 
ROOT
ATOM      1  N11 AAH d         -24.395  40.675  16.429  0.00  0.00    -0.055 N 
ATOM      2  H7  AAH d         -24.730  39.904  16.985  0.00  0.00     0.281 HD
ENDROOT
BRANCH   1   3
ATOM      3  C10 AAH d         -23.138  40.149  15.852  0.00  0.00     0.274 C 
BRANCH   3   4
ATOM      4  C3  AAH d         -22.833  38.690  16.188  0.00  0.00    -0.032 C 
ATOM      5  C2  AAH d         -23.787  37.937  16.922  0.00  0.00     0.011 C 
ATOM      6  C1  AAH d         -23.588  36.562  17.092  0.00  0.00     0.037 C 
ATOM      7  C6  AAH d         -22.361  35.982  16.744  0.00  0.00     0.102 C 
ATOM      8  C5  AAH d         -21.400  36.733  16.081  0.00  0.00     0.037 C 
ATOM      9  C4  AAH d         -21.658  38.086  15.783  0.00  0.00     0.011 C 
BRANCH   7  10
ATOM     10  N7  AAH d         -22.101  34.546  17.080  0.00  0.00    -0.116 N 
ATOM     11  O9  AAH d         -21.278  33.923  16.488  0.00  0.00    -0.532 OA
ATOM     12  O8  AAH d         -22.855  33.955  17.764  0.00  0.00    -0.532 OA
ENDBRANCH   7  10
ENDBRANCH   3   4
ENDBRANCH   1   3
BRANCH   1  13
ATOM     13  C17 AAH d         -24.264  41.820  17.461  0.00  0.00     0.236 C 
BRANCH  13  14
ATOM     14  C18 AAH d         -23.908  41.309  18.867  0.00  0.00     0.028 C 
BRANCH  14  15
ATOM     15  C19 AAH d         -25.135  41.370  19.792  0.00  0.00     0.012 C 
BRANCH  15  16
ATOM     16  C20 AAH d         -24.697  41.111  21.241  0.00  0.00     0.113 C 
BRANCH  16  17
ATOM     17  C21 AAH d         -25.921  40.977  22.131  0.00  0.00     0.172 C 
ATOM     18  O23 AAH d         -27.024  40.859  21.609  0.00  0.00    -0.648 OA
ATOM     19  O22 AAH d         -25.801  40.993  23.506  0.00  0.00    -0.648 OA
ENDBRANCH  16  17
ENDBRANCH  15  16
ENDBRANCH  14  15
ENDBRANCH  13  14
ENDBRANCH   1  13
BRANCH   1  20
ATOM     20  C12 AAH d         -25.500  40.894  15.419  0.00  0.00     0.380 C 
BRANCH  20  21
ATOM     21  P13 AAH d         -26.745  39.555  15.122  0.00  0.00     0.286 P 
ATOM     22  O16 AAH d         -27.830  40.195  14.408  0.00  0.00    -0.638 OA
ATOM     23  O15 AAH d         -27.323  38.895  16.480  0.00  0.00    -0.638 OA
ATOM     24  O14 AAH d         -26.160  38.383  14.267  0.00  0.00    -0.638 OA
ENDBRANCH  20  21
ENDBRANCH   1  20
TORSDOF 10
ENDMDL
MODEL 3
REMARK VINA RESULT:      -8.0      1.557      2.118
REMARK  10 active torsions:
REMARK  status: ('A' for Active; 'I' for Inactive)
REMARK    1  A    between atoms: C3_3  and  C10_10 
REMARK    2  A    between atoms: C6_6  and  N7_7 
REMARK    3  A    between atoms: C10_10  and  N11_11 
REMARK    4  A    between atoms: N11_11  and  C17_17 
REMARK    5  A    between atoms: N11_11  and  C12_12 
REMARK    6  A    between atoms: C12_12  and  P13_13 
REMARK    7  A    between atoms: C17_17  and  C18_18 
REMARK    8  A    between atoms: C18_18  and  C19_19 
REMARK    9  A    between atoms: C19_19  and  C20_20 
REMARK   10  A    between atoms: C20_20  and  C21_21 
ROOT
ATOM      1  N11 AAH d         -24.337  40.496  16.249  0.00  0.00    -0.055 N 
ATOM      2  H7  AAH d         -24.704  39.754  16.824  0.00  0.00     0.281 HD
ENDROOT
BRANCH   1   3
ATOM      3  C10 AAH d         -23.104  39.903  15.686  0.00  0.00     0.274 C 
BRANCH   3   4
ATOM      4  C3  AAH d         -22.861  38.441  16.056  0.00  0.00    -0.032 C 
ATOM      5  C2  AAH d         -21.651  37.818  15.650  0.00  0.00     0.011 C 
ATOM      6  C1  AAH d         -21.352  36.534  16.121  0.00  0.00     0.037 C 
ATOM      7  C6  AAH d         -22.328  35.789  16.795  0.00  0.00     0.102 C 
ATOM      8  C5  AAH d         -23.538  36.376  17.140  0.00  0.00     0.037 C 
ATOM      9  C4  AAH d         -23.784  37.718  16.787  0.00  0.00     0.011 C 
BRANCH   7  10
ATOM     10  N7  AAH d         -22.050  34.360  17.152  0.00  0.00    -0.116 N 
ATOM     11  O9  AAH d         -21.183  33.757  16.606  0.00  0.00    -0.532 OA
ATOM     12  O8  AAH d         -22.823  33.754  17.801  0.00  0.00    -0.532 OA
ENDBRANCH   7  10
ENDBRANCH   3   4
ENDBRANCH   1   3
BRANCH   1  13
ATOM     13  C17 AAH d         -24.157  41.661  17.250  0.00  0.00     0.236 C 
BRANCH  13  14
ATOM     14  C18 AAH d         -23.734  41.178  18.647  0.00  0.00     0.028 C 
BRANCH  14  15
ATOM     15  C19 AAH d         -24.897  41.317  19.644  0.00  0.00     0.012 C 
BRANCH  15  16
ATOM     16  C20 AAH d         -24.342  41.358  21.075  0.00  0.00     0.113 C 
BRANCH  16  17
ATOM     17  C21 AAH d         -23.254  42.412  21.173  0.00  0.00     0.172 C 
ATOM     18  O23 AAH d         -23.535  43.580  20.931  0.00  0.00    -0.648 OA
ATOM     19  O22 AAH d         -21.963  42.067  21.523  0.00  0.00    -0.648 OA
ENDBRANCH  16  17
ENDBRANCH  15  16
ENDBRANCH  14  15
ENDBRANCH  13  14
ENDBRANCH   1  13
BRANCH   1  20
ATOM     20  C12 AAH d         -25.433  40.735  15.233  0.00  0.00     0.380 C 
BRANCH  20  21
ATOM     21  P13 AAH d         -26.912  39.620  15.206  0.00  0.00     0.286 P 
ATOM     22  O16 AAH d         -26.532  38.505  14.362  0.00  0.00    -0.638 OA
ATOM     23  O15 AAH d         -28.238  40.315  14.598  0.00  0.00    -0.638 OA
ATOM     24  O14 AAH d         -27.290  39.104  16.633  0.00  0.00    -0.638 OA
ENDBRANCH  20  21
ENDBRANCH   1  20
TORSDOF 10
ENDMDL
MODEL 4
REMARK VINA RESULT:      -8.0      1.482      2.147
REMARK  10 active torsions:
REMARK  status: ('A' for Active; 'I' for Inactive)
REMARK    1  A    between atoms: C3_3  and  C10_10 
REMARK    2  A    between atoms: C6_6  and  N7_7 
REMARK    3  A    between atoms: C10_10  and  N11_11 
REMARK    4  A    between atoms: N11_11  and  C17_17 
REMARK    5  A    between atoms: N11_11  and  C12_12 
REMARK    6  A    between atoms: C12_12  and  P13_13 
REMARK    7  A    between atoms: C17_17  and  C18_18 
REMARK    8  A    between atoms: C18_18  and  C19_19 
REMARK    9  A    between atoms: C19_19  and  C20_20 
REMARK   10  A    between atoms: C20_20  and  C21_21 
ROOT
ATOM      1  N11 AAH d         -24.334  40.698  16.113  0.00  0.00    -0.055 N 
ATOM      2  H7  AAH d         -24.708  40.013  16.750  0.00  0.00     0.281 HD
ENDROOT
BRANCH   1   3
ATOM      3  C10 AAH d         -23.000  40.151  15.780  0.00  0.00     0.274 C 
BRANCH   3   4
ATOM      4  C3  AAH d         -22.813  38.667  16.092  0.00  0.00    -0.032 C 
ATOM      5  C2  AAH d         -21.621  38.019  15.672  0.00  0.00     0.011 C 
ATOM      6  C1  AAH d         -21.372  36.708  16.092  0.00  0.00     0.037 C 
ATOM      7  C6  AAH d         -22.381  35.970  16.724  0.00  0.00     0.102 C 
ATOM      8  C5  AAH d         -23.573  36.585  17.082  0.00  0.00     0.037 C 
ATOM      9  C4  AAH d         -23.769  37.948  16.782  0.00  0.00     0.011 C 
BRANCH   7  10
ATOM     10  N7  AAH d         -22.157  34.519  17.024  0.00  0.00    -0.116 N 
ATOM     11  O9  AAH d         -22.866  33.940  17.784  0.00  0.00    -0.532 OA
ATOM     12  O8  AAH d         -21.155  33.997  16.695  0.00  0.00    -0.532 OA
ENDBRANCH   7  10
ENDBRANCH   3   4
ENDBRANCH   1   3
BRANCH   1  13
ATOM     13  C17 AAH d         -24.366  42.003  16.943  0.00  0.00     0.236 C 
BRANCH  13  14
ATOM     14  C18 AAH d         -25.178  41.857  18.240  0.00  0.00     0.028 C 
BRANCH  14  15
ATOM     15  C19 AAH d         -24.574  40.762  19.137  0.00  0.00     0.012 C 
BRANCH  15  16
ATOM     16  C20 AAH d         -24.654  41.201  20.606  0.00  0.00     0.113 C 
BRANCH  16  17
ATOM     17  C21 AAH d         -23.515  42.155  20.919  0.00  0.00     0.172 C 
ATOM     18  O23 AAH d         -22.517  41.723  21.485  0.00  0.00    -0.648 OA
ATOM     19  O22 AAH d         -23.597  43.491  20.580  0.00  0.00    -0.648 OA
ENDBRANCH  16  17
ENDBRANCH  15  16
ENDBRANCH  14  15
ENDBRANCH  13  14
ENDBRANCH   1  13
BRANCH   1  20
ATOM     20  C12 AAH d         -25.316  40.689  14.961  0.00  0.00     0.380 C 
BRANCH  20  21
ATOM     21  P13 AAH d         -26.699  39.457  14.951  0.00  0.00     0.286 P 
ATOM     22  O16 AAH d         -27.766  40.089  14.202  0.00  0.00    -0.638 OA
ATOM     23  O15 AAH d         -27.243  39.080  16.426  0.00  0.00    -0.638 OA
ATOM     24  O14 AAH d         -26.289  38.112  14.266  0.00  0.00    -0.638 OA
ENDBRANCH  20  21
ENDBRANCH   1  20
TORSDOF 10
ENDMDL
MODEL 5
REMARK VINA RESULT:      -7.9      0.549      1.674
REMARK  10 active torsions:
REMARK  status: ('A' for Active; 'I' for Inactive)
REMARK    1  A    between atoms: C3_3  and  C10_10 
REMARK    2  A    between atoms: C6_6  and  N7_7 
REMARK    3  A    between atoms: C10_10  and  N11_11 
REMARK    4  A    between atoms: N11_11  and  C17_17 
REMARK    5  A    between atoms: N11_11  and  C12_12 
REMARK    6  A    between atoms: C12_12  and  P13_13 
REMARK    7  A    between atoms: C17_17  and  C18_18 
REMARK    8  A    between atoms: C18_18  and  C19_19 
REMARK    9  A    between atoms: C19_19  and  C20_20 
REMARK   10  A    between atoms: C20_20  and  C21_21 
ROOT
ATOM      1  N11 AAH d         -24.663  40.675  16.462  0.00  0.00    -0.055 N 
ATOM      2  H7  AAH d         -25.023  39.872  16.953  0.00  0.00     0.281 HD
ENDROOT
BRANCH   1   3
ATOM      3  C10 AAH d         -23.310  40.237  16.053  0.00  0.00     0.274 C 
BRANCH   3   4
ATOM      4  C3  AAH d         -23.015  38.755  16.275  0.00  0.00    -0.032 C 
ATOM      5  C2  AAH d         -21.802  38.211  15.774  0.00  0.00     0.011 C 
ATOM      6  C1  AAH d         -21.451  36.899  16.112  0.00  0.00     0.037 C 
ATOM      7  C6  AAH d         -22.383  36.062  16.740  0.00  0.00     0.102 C 
ATOM      8  C5  AAH d         -23.597  36.577  17.176  0.00  0.00     0.037 C 
ATOM      9  C4  AAH d         -23.892  37.938  16.960  0.00  0.00     0.011 C 
BRANCH   7  10
ATOM     10  N7  AAH d         -22.054  34.616  16.951  0.00  0.00    -0.116 N 
ATOM     11  O9  AAH d         -21.280  34.060  16.238  0.00  0.00    -0.532 OA
ATOM     12  O8  AAH d         -22.717  33.958  17.667  0.00  0.00    -0.532 OA
ENDBRANCH   7  10
ENDBRANCH   3   4
ENDBRANCH   1   3
BRANCH   1  13
ATOM     13  C17 AAH d         -24.742  41.799  17.521  0.00  0.00     0.236 C 
BRANCH  13  14
ATOM     14  C18 AAH d         -23.854  41.519  18.745  0.00  0.00     0.028 C 
BRANCH  14  15
ATOM     15  C19 AAH d         -24.706  41.048  19.937  0.00  0.00     0.012 C 
BRANCH  15  16
ATOM     16  C20 AAH d         -25.191  42.268  20.733  0.00  0.00     0.113 C 
BRANCH  16  17
ATOM     17  C21 AAH d         -26.657  42.527  20.432  0.00  0.00     0.172 C 
ATOM     18  O23 AAH d         -27.151  43.599  20.766  0.00  0.00    -0.648 OA
ATOM     19  O22 AAH d         -27.429  41.575  19.798  0.00  0.00    -0.648 OA
ENDBRANCH  16  17
ENDBRANCH  15  16
ENDBRANCH  14  15
ENDBRANCH  13  14
ENDBRANCH   1  13
BRANCH   1  20
ATOM     20  C12 AAH d         -25.633  40.856  15.314  0.00  0.00     0.380 C 
BRANCH  20  21
ATOM     21  P13 AAH d         -26.951  39.587  15.025  0.00  0.00     0.286 P 
ATOM     22  O16 AAH d         -27.305  39.099  16.343  0.00  0.00    -0.638 OA
ATOM     23  O15 AAH d         -26.466  38.343  14.115  0.00  0.00    -0.638 OA
ATOM     24  O14 AAH d         -28.212  40.192  14.324  0.00  0.00    -0.638 OA
ENDBRANCH  20  21
ENDBRANCH   1  20
TORSDOF 10
ENDMDL
MODEL 6
REMARK VINA RESULT:      -7.3      2.083      4.509
REMARK  10 active torsions:
REMARK  status: ('A' for Active; 'I' for Inactive)
REMARK    1  A    between atoms: C3_3  and  C10_10 
REMARK    2  A    between atoms: C6_6  and  N7_7 
REMARK    3  A    between atoms: C10_10  and  N11_11 
REMARK    4  A    between atoms: N11_11  and  C17_17 
REMARK    5  A    between atoms: N11_11  and  C12_12 
REMARK    6  A    between atoms: C12_12  and  P13_13 
REMARK    7  A    between atoms: C17_17  and  C18_18 
REMARK    8  A    between atoms: C18_18  and  C19_19 
REMARK    9  A    between atoms: C19_19  and  C20_20 
REMARK   10  A    between atoms: C20_20  and  C21_21 
ROOT
ATOM      1  N11 AAH d         -24.737  41.286  16.378  0.00  0.00    -0.055 N 
ATOM      2  H7  AAH d         -23.803  41.204  16.007  0.00  0.00     0.281 HD
ENDROOT
BRANCH   1   3
ATOM      3  C10 AAH d         -25.034  39.911  16.838  0.00  0.00     0.274 C 
BRANCH   3   4
ATOM      4  C3  AAH d         -23.917  38.895  16.605  0.00  0.00    -0.032 C 
ATOM      5  C2  AAH d         -22.722  39.319  15.964  0.00  0.00     0.011 C 
ATOM      6  C1  AAH d         -21.636  38.438  15.893  0.00  0.00     0.037 C 
ATOM      7  C6  AAH d         -21.800  37.091  16.242  0.00  0.00     0.102 C 
ATOM      8  C5  AAH d         -22.990  36.660  16.812  0.00  0.00     0.037 C 
ATOM      9  C4  AAH d         -24.038  37.581  17.015  0.00  0.00     0.011 C 
BRANCH   7  10
ATOM     10  N7  AAH d         -20.678  36.126  16.009  0.00  0.00    -0.116 N 
ATOM     11  O9  AAH d         -20.722  35.026  16.458  0.00  0.00    -0.532 OA
ATOM     12  O8  AAH d         -19.651  36.509  15.581  0.00  0.00    -0.532 OA
ENDBRANCH   7  10
ENDBRANCH   3   4
ENDBRANCH   1   3
BRANCH   1  13
ATOM     13  C17 AAH d         -25.550  41.807  15.170  0.00  0.00     0.236 C 
BRANCH  13  14
ATOM     14  C18 AAH d         -25.147  41.127  13.851  0.00  0.00     0.028 C 
BRANCH  14  15
ATOM     15  C19 AAH d         -26.132  39.998  13.500  0.00  0.00     0.012 C 
BRANCH  15  16
ATOM     16  C20 AAH d         -27.482  40.605  13.093  0.00  0.00     0.113 C 
BRANCH  16  17
ATOM     17  C21 AAH d         -28.551  40.195  14.091  0.00  0.00     0.172 C 
ATOM     18  O23 AAH d         -28.207  39.764  15.186  0.00  0.00    -0.648 OA
ATOM     19  O22 AAH d         -29.891  40.298  13.776  0.00  0.00    -0.648 OA
ENDBRANCH  16  17
ENDBRANCH  15  16
ENDBRANCH  14  15
ENDBRANCH  13  14
ENDBRANCH   1  13
BRANCH   1  20
ATOM     20  C12 AAH d         -24.592  42.299  17.493  0.00  0.00     0.380 C 
BRANCH  20  21
ATOM     21  P13 AAH d         -25.564  42.082  19.055  0.00  0.00     0.286 P 
ATOM     22  O16 AAH d         -25.388  43.319  19.787  0.00  0.00    -0.638 OA
ATOM     23  O15 AAH d         -25.055  40.851  19.969  0.00  0.00    -0.638 OA
ATOM     24  O14 AAH d         -27.084  41.837  18.778  0.00  0.00    -0.638 OA
ENDBRANCH  20  21
ENDBRANCH   1  20
TORSDOF 10
ENDMDL
MODEL 7
REMARK VINA RESULT:      -7.2      2.142      4.714
REMARK  10 active torsions:
REMARK  status: ('A' for Active; 'I' for Inactive)
REMARK    1  A    between atoms: C3_3  and  C10_10 
REMARK    2  A    between atoms: C6_6  and  N7_7 
REMARK    3  A    between atoms: C10_10  and  N11_11 
REMARK    4  A    between atoms: N11_11  and  C17_17 
REMARK    5  A    between atoms: N11_11  and  C12_12 
REMARK    6  A    between atoms: C12_12  and  P13_13 
REMARK    7  A    between atoms: C17_17  and  C18_18 
REMARK    8  A    between atoms: C18_18  and  C19_19 
REMARK    9  A    between atoms: C19_19  and  C20_20 
REMARK   10  A    between atoms: C20_20  and  C21_21 
ROOT
ATOM      1  N11 AAH d         -24.517  41.264  16.837  0.00  0.00    -0.055 N 
ATOM      2  H7  AAH d         -23.589  41.166  16.454  0.00  0.00     0.281 HD
ENDROOT
BRANCH   1   3
ATOM      3  C10 AAH d         -24.941  39.862  17.046  0.00  0.00     0.274 C 
BRANCH   3   4
ATOM      4  C3  AAH d         -23.866  38.812  16.767  0.00  0.00    -0.032 C 
ATOM      5  C2  AAH d         -22.691  39.197  16.068  0.00  0.00     0.011 C 
ATOM      6  C1  AAH d         -21.635  38.285  15.952  0.00  0.00     0.037 C 
ATOM      7  C6  AAH d         -21.823  36.945  16.317  0.00  0.00     0.102 C 
ATOM      8  C5  AAH d         -22.997  36.552  16.945  0.00  0.00     0.037 C 
ATOM      9  C4  AAH d         -24.006  37.505  17.191  0.00  0.00     0.011 C 
BRANCH   7  10
ATOM     10  N7  AAH d         -20.742  35.946  16.037  0.00  0.00    -0.116 N 
ATOM     11  O9  AAH d         -20.841  34.823  16.416  0.00  0.00    -0.532 OA
ATOM     12  O8  AAH d         -19.692  36.307  15.646  0.00  0.00    -0.532 OA
ENDBRANCH   7  10
ENDBRANCH   3   4
ENDBRANCH   1   3
BRANCH   1  13
ATOM     13  C17 AAH d         -25.265  42.063  15.745  0.00  0.00     0.236 C 
BRANCH  13  14
ATOM     14  C18 AAH d         -26.772  41.761  15.722  0.00  0.00     0.028 C 
BRANCH  14  15
ATOM     15  C19 AAH d         -27.302  41.752  14.277  0.00  0.00     0.012 C 
BRANCH  15  16
ATOM     16  C20 AAH d         -27.744  40.330  13.903  0.00  0.00     0.113 C 
BRANCH  16  17
ATOM     17  C21 AAH d         -26.720  39.703  12.973  0.00  0.00     0.172 C 
ATOM     18  O23 AAH d         -27.019  39.517  11.799  0.00  0.00    -0.648 OA
ATOM     19  O22 AAH d         -25.472  39.338  13.437  0.00  0.00    -0.648 OA
ENDBRANCH  16  17
ENDBRANCH  15  16
ENDBRANCH  14  15
ENDBRANCH  13  14
ENDBRANCH   1  13
BRANCH   1  20
ATOM     20  C12 AAH d         -24.295  42.045  18.114  0.00  0.00     0.380 C 
BRANCH  20  21
ATOM     21  P13 AAH d         -25.547  41.942  19.476  0.00  0.00     0.286 P 
ATOM     22  O16 AAH d         -25.519  43.241  20.117  0.00  0.00    -0.638 OA
ATOM     23  O15 AAH d         -25.218  40.804  20.575  0.00  0.00    -0.638 OA
ATOM     24  O14 AAH d         -26.985  41.643  18.937  0.00  0.00    -0.638 OA
ENDBRANCH  20  21
ENDBRANCH   1  20
TORSDOF 10
ENDMDL
MODEL 8
REMARK VINA RESULT:      -7.1      2.120      4.516
REMARK  10 active torsions:
REMARK  status: ('A' for Active; 'I' for Inactive)
REMARK    1  A    between atoms: C3_3  and  C10_10 
REMARK    2  A    between atoms: C6_6  and  N7_7 
REMARK    3  A    between atoms: C10_10  and  N11_11 
REMARK    4  A    between atoms: N11_11  and  C17_17 
REMARK    5  A    between atoms: N11_11  and  C12_12 
REMARK    6  A    between atoms: C12_12  and  P13_13 
REMARK    7  A    between atoms: C17_17  and  C18_18 
REMARK    8  A    between atoms: C18_18  and  C19_19 
REMARK    9  A    between atoms: C19_19  and  C20_20 
REMARK   10  A    between atoms: C20_20  and  C21_21 
ROOT
ATOM      1  N11 AAH d         -23.891  40.738  16.534  0.00  0.00    -0.055 N 
ATOM      2  H7  AAH d         -23.484  41.641  16.720  0.00  0.00     0.281 HD
ENDROOT
BRANCH   1   3
ATOM      3  C10 AAH d         -22.816  40.032  15.802  0.00  0.00     0.274 C 
BRANCH   3   4
ATOM      4  C3  AAH d         -22.676  38.547  16.133  0.00  0.00    -0.032 C 
ATOM      5  C2  AAH d         -21.484  37.867  15.763  0.00  0.00     0.011 C 
ATOM      6  C1  AAH d         -21.282  36.554  16.204  0.00  0.00     0.037 C 
ATOM      7  C6  AAH d         -22.331  35.846  16.805  0.00  0.00     0.102 C 
ATOM      8  C5  AAH d         -23.520  36.492  17.113  0.00  0.00     0.037 C 
ATOM      9  C4  AAH d         -23.673  37.857  16.795  0.00  0.00     0.011 C 
BRANCH   7  10
ATOM     10  N7  AAH d         -22.152  34.394  17.125  0.00  0.00    -0.116 N 
ATOM     11  O9  AAH d         -21.339  33.742  16.553  0.00  0.00    -0.532 OA
ATOM     12  O8  AAH d         -22.957  33.829  17.773  0.00  0.00    -0.532 OA
ENDBRANCH   7  10
ENDBRANCH   3   4
ENDBRANCH   1   3
BRANCH   1  13
ATOM     13  C17 AAH d         -25.167  41.087  15.733  0.00  0.00     0.236 C 
BRANCH  13  14
ATOM     14  C18 AAH d         -26.289  40.054  15.932  0.00  0.00     0.028 C 
BRANCH  14  15
ATOM     15  C19 AAH d         -26.204  38.948  14.866  0.00  0.00     0.012 C 
BRANCH  15  16
ATOM     16  C20 AAH d         -25.779  39.562  13.525  0.00  0.00     0.113 C 
BRANCH  16  17
ATOM     17  C21 AAH d         -27.010  39.903  12.704  0.00  0.00     0.172 C 
ATOM     18  O23 AAH d         -27.677  38.991  12.228  0.00  0.00    -0.648 OA
ATOM     19  O22 AAH d         -27.375  41.216  12.486  0.00  0.00    -0.648 OA
ENDBRANCH  16  17
ENDBRANCH  15  16
ENDBRANCH  14  15
ENDBRANCH  13  14
ENDBRANCH   1  13
BRANCH   1  20
ATOM     20  C12 AAH d         -24.175  40.183  17.913  0.00  0.00     0.380 C 
BRANCH  20  21
ATOM     21  P13 AAH d         -24.642  41.338  19.284  0.00  0.00     0.286 P 
ATOM     22  O16 AAH d         -24.955  40.483  20.411  0.00  0.00    -0.638 OA
ATOM     23  O15 AAH d         -25.926  42.260  18.947  0.00  0.00    -0.638 OA
ATOM     24  O14 AAH d         -23.477  42.312  19.660  0.00  0.00    -0.638 OA
ENDBRANCH  20  21
ENDBRANCH   1  20
TORSDOF 10
ENDMDL
MODEL 9
REMARK VINA RESULT:      -7.0      2.390      5.010
REMARK  10 active torsions:
REMARK  status: ('A' for Active; 'I' for Inactive)
REMARK    1  A    between atoms: C3_3  and  C10_10 
REMARK    2  A    between atoms: C6_6  and  N7_7 
REMARK    3  A    between atoms: C10_10  and  N11_11 
REMARK    4  A    between atoms: N11_11  and  C17_17 
REMARK    5  A    between atoms: N11_11  and  C12_12 
REMARK    6  A    between atoms: C12_12  and  P13_13 
REMARK    7  A    between atoms: C17_17  and  C18_18 
REMARK    8  A    between atoms: C18_18  and  C19_19 
REMARK    9  A    between atoms: C19_19  and  C20_20 
REMARK   10  A    between atoms: C20_20  and  C21_21 
ROOT
ATOM      1  N11 AAH d         -24.863  41.329  16.636  0.00  0.00    -0.055 N 
ATOM      2  H7  AAH d         -23.985  41.291  16.143  0.00  0.00     0.281 HD
ENDROOT
BRANCH   1   3
ATOM      3  C10 AAH d         -25.053  39.933  17.089  0.00  0.00     0.274 C 
BRANCH   3   4
ATOM      4  C3  AAH d         -23.878  38.997  16.808  0.00  0.00    -0.032 C 
ATOM      5  C2  AAH d         -23.994  37.623  17.149  0.00  0.00     0.011 C 
ATOM      6  C1  AAH d         -22.991  36.732  16.750  0.00  0.00     0.037 C 
ATOM      7  C6  AAH d         -21.787  37.221  16.224  0.00  0.00     0.102 C 
ATOM      8  C5  AAH d         -21.648  38.574  15.947  0.00  0.00     0.037 C 
ATOM      9  C4  AAH d         -22.715  39.453  16.219  0.00  0.00     0.011 C 
BRANCH   7  10
ATOM     10  N7  AAH d         -20.662  36.271  15.952  0.00  0.00    -0.116 N 
ATOM     11  O9  AAH d         -20.696  35.155  16.362  0.00  0.00    -0.532 OA
ATOM     12  O8  AAH d         -19.638  36.674  15.532  0.00  0.00    -0.532 OA
ENDBRANCH   7  10
ENDBRANCH   3   4
ENDBRANCH   1   3
BRANCH   1  13
ATOM     13  C17 AAH d         -25.846  41.854  15.564  0.00  0.00     0.236 C 
BRANCH  13  14
ATOM     14  C18 AAH d         -25.939  40.923  14.343  0.00  0.00     0.028 C 
BRANCH  14  15
ATOM     15  C19 AAH d         -27.338  40.290  14.250  0.00  0.00     0.012 C 
BRANCH  15  16
ATOM     16  C20 AAH d         -28.054  40.814  12.997  0.00  0.00     0.113 C 
BRANCH  16  17
ATOM     17  C21 AAH d         -27.964  39.784  11.886  0.00  0.00     0.172 C 
ATOM     18  O23 AAH d         -26.959  39.754  11.184  0.00  0.00    -0.648 OA
ATOM     19  O22 AAH d         -28.995  38.895  11.658  0.00  0.00    -0.648 OA
ENDBRANCH  16  17
ENDBRANCH  15  16
ENDBRANCH  14  15
ENDBRANCH  13  14
ENDBRANCH   1  13
BRANCH   1  20
ATOM     20  C12 AAH d         -24.603  42.316  17.754  0.00  0.00     0.380 C 
BRANCH  20  21
ATOM     21  P13 AAH d         -26.011  42.885  18.815  0.00  0.00     0.286 P 
ATOM     22  O16 AAH d         -25.442  43.063  20.136  0.00  0.00    -0.638 OA
ATOM     23  O15 AAH d         -27.227  41.824  18.903  0.00  0.00    -0.638 OA
ATOM     24  O14 AAH d         -26.626  44.231  18.312  0.00  0.00    -0.638 OA
ENDBRANCH  20  21
ENDBRANCH   1  20
TORSDOF 10
ENDMDL
MODEL 10
REMARK VINA RESULT:      -7.0      2.134      4.214
REMARK  10 active torsions:
REMARK  status: ('A' for Active; 'I' for Inactive)
REMARK    1  A    between atoms: C3_3  and  C10_10 
REMARK    2  A    between atoms: C6_6  and  N7_7 
REMARK    3  A    between atoms: C10_10  and  N11_11 
REMARK    4  A    between atoms: N11_11  and  C17_17 
REMARK    5  A    between atoms: N11_11  and  C12_12 
REMARK    6  A    between atoms: C12_12  and  P13_13 
REMARK    7  A    between atoms: C17_17  and  C18_18 
REMARK    8  A    between atoms: C18_18  and  C19_19 
REMARK    9  A    between atoms: C19_19  and  C20_20 
REMARK   10  A    between atoms: C20_20  and  C21_21 
ROOT
ATOM      1  N11 AAH d         -24.568  40.485  15.561  0.00  0.00    -0.055 N 
ATOM      2  H7  AAH d         -24.429  41.440  15.271  0.00  0.00     0.281 HD
ENDROOT
BRANCH   1   3
ATOM      3  C10 AAH d         -23.321  40.173  16.294  0.00  0.00     0.274 C 
BRANCH   3   4
ATOM      4  C3  AAH d         -22.994  38.686  16.411  0.00  0.00    -0.032 C 
ATOM      5  C2  AAH d         -21.791  38.196  15.835  0.00  0.00     0.011 C 
ATOM      6  C1  AAH d         -21.407  36.872  16.076  0.00  0.00     0.037 C 
ATOM      7  C6  AAH d         -22.302  35.982  16.684  0.00  0.00     0.102 C 
ATOM      8  C5  AAH d         -23.507  36.445  17.194  0.00  0.00     0.037 C 
ATOM      9  C4  AAH d         -23.832  37.811  17.075  0.00  0.00     0.011 C 
BRANCH   7  10
ATOM     10  N7  AAH d         -21.941  34.532  16.790  0.00  0.00    -0.116 N 
ATOM     11  O9  AAH d         -21.270  34.010  15.958  0.00  0.00    -0.532 OA
ATOM     12  O8  AAH d         -22.498  33.841  17.564  0.00  0.00    -0.532 OA
ENDBRANCH   7  10
ENDBRANCH   3   4
ENDBRANCH   1   3
BRANCH   1  13
ATOM     13  C17 AAH d         -24.795  39.742  14.224  0.00  0.00     0.236 C 
BRANCH  13  14
ATOM     14  C18 AAH d         -25.708  40.523  13.263  0.00  0.00     0.028 C 
BRANCH  14  15
ATOM     15  C19 AAH d         -26.968  39.705  12.927  0.00  0.00     0.012 C 
BRANCH  15  16
ATOM     16  C20 AAH d         -28.128  40.659  12.612  0.00  0.00     0.113 C 
BRANCH  16  17
ATOM     17  C21 AAH d         -28.910  40.953  13.881  0.00  0.00     0.172 C 
ATOM     18  O23 AAH d         -29.499  42.023  13.980  0.00  0.00    -0.648 OA
ATOM     19  O22 AAH d         -28.955  40.037  14.913  0.00  0.00    -0.648 OA
ENDBRANCH  16  17
ENDBRANCH  15  16
ENDBRANCH  14  15
ENDBRANCH  13  14
ENDBRANCH   1  13
BRANCH   1  20
ATOM     20  C12 AAH d         -25.803  40.553  16.433  0.00  0.00     0.380 C 
BRANCH  20  21
ATOM     21  P13 AAH d         -26.258  42.153  17.248  0.00  0.00     0.286 P 
ATOM     22  O16 AAH d         -26.895  41.777  18.494  0.00  0.00    -0.638 OA
ATOM     23  O15 AAH d         -27.283  43.053  16.383  0.00  0.00    -0.638 OA
ATOM     24  O14 AAH d         -25.008  43.047  17.536  0.00  0.00    -0.638 OA
ENDBRANCH  20  21
ENDBRANCH   1  20
TORSDOF 10
ENDMDL
