MODEL 1
REMARK VINA RESULT:      -7.3      0.000      0.000
REMARK  3 active torsions:
REMARK  status: ('A' for Active; 'I' for Inactive)
REMARK    1  A    between atoms: C1_2  and  C6_3 
REMARK    2  A    between atoms: C6_3  and  C7_4 
REMARK    3  A    between atoms: C7_4  and  C8_5 
ROOT
ATOM      1  N1  BDI d          15.351  16.726  20.385  0.00  0.00    -0.338 N 
ATOM      2  C1  BDI d          14.160  16.550  19.840  0.00  0.00     0.105 A 
ATOM      3  N2  BDI d          13.261  16.560  20.677  0.00  0.00    -0.227 NA
ATOM      4  C2  BDI d          13.752  16.756  22.002  0.00  0.00     0.160 A 
ATOM      5  C4  BDI d          13.105  16.845  23.345  0.00  0.00     0.291 A 
ATOM      6  N5  BDI d          13.974  17.047  24.425  0.00  0.00    -0.262 N 
ATOM      7  N4  BDI d          15.463  17.171  24.271  0.00  0.00    -0.262 N 
ATOM      8  C5  BDI d          16.120  17.096  23.028  0.00  0.00     0.289 A 
ATOM      9  O1  BDI d          17.374  17.199  22.883  0.00  0.00    -0.264 OA
ATOM     10  C3  BDI d          15.168  16.870  21.818  0.00  0.00     0.138 A 
ATOM     11  O3  BDI d          11.885  16.742  23.455  0.00  0.00    -0.264 OA
ATOM     12  H1  BDI d          16.250  16.755  19.883  0.00  0.00     0.167 HD
ATOM     13  H11 BDI d          13.583  17.112  25.343  0.00  0.00     0.190 HD
ATOM     14  H12 BDI d          16.015  17.314  25.092  0.00  0.00     0.190 HD
ENDROOT
BRANCH   2  15
ATOM     15  C6  BDI d          13.968  16.358  18.333  0.00  0.00     0.078 C 
BRANCH  15  16
ATOM     16  C7  BDI d          12.861  15.353  17.877  0.00  0.00     0.007 C 
BRANCH  16  17
ATOM     17  C8  BDI d          12.252  15.839  16.521  0.00  0.00    -0.004 C 
ATOM     18  C9  BDI d          12.009  14.684  15.519  0.00  0.00     0.005 C 
ENDBRANCH  16  17
ENDBRANCH  15  16
ENDBRANCH   2  15
TORSDOF 3
ENDMDL
MODEL 2
REMARK VINA RESULT:      -7.2      0.438      2.581
REMARK  3 active torsions:
REMARK  status: ('A' for Active; 'I' for Inactive)
REMARK    1  A    between atoms: C1_2  and  C6_3 
REMARK    2  A    between atoms: C6_3  and  C7_4 
REMARK    3  A    between atoms: C7_4  and  C8_5 
ROOT
ATOM      1  N1  BDI d          13.408  16.127  20.804  0.00  0.00    -0.338 N 
ATOM      2  C1  BDI d          14.448  16.074  19.989  0.00  0.00     0.105 A 
ATOM      3  N2  BDI d          15.479  16.471  20.528  0.00  0.00    -0.227 NA
ATOM      4  C2  BDI d          15.266  16.879  21.878  0.00  0.00     0.160 A 
ATOM      5  C4  BDI d          16.153  17.425  22.948  0.00  0.00     0.291 A 
ATOM      6  N5  BDI d          15.529  17.705  24.170  0.00  0.00    -0.262 N 
ATOM      7  N4  BDI d          14.064  17.479  24.416  0.00  0.00    -0.262 N 
ATOM      8  C5  BDI d          13.187  16.965  23.442  0.00  0.00     0.289 A 
ATOM      9  O1  BDI d          11.951  16.769  23.635  0.00  0.00    -0.264 OA
ATOM     10  C3  BDI d          13.866  16.650  22.078  0.00  0.00     0.138 A 
ATOM     11  O3  BDI d          17.350  17.604  22.732  0.00  0.00    -0.264 OA
ATOM     12  H1  BDI d          12.444  15.847  20.575  0.00  0.00     0.167 HD
ATOM     13  H11 BDI d          16.085  18.073  24.915  0.00  0.00     0.190 HD
ATOM     14  H12 BDI d          13.694  17.705  25.317  0.00  0.00     0.190 HD
ENDROOT
BRANCH   2  15
ATOM     15  C6  BDI d          14.337  15.573  18.548  0.00  0.00     0.078 C 
BRANCH  15  16
ATOM     16  C7  BDI d          12.986  14.909  18.125  0.00  0.00     0.007 C 
BRANCH  16  17
ATOM     17  C8  BDI d          12.443  15.620  16.842  0.00  0.00    -0.004 C 
ATOM     18  C9  BDI d          11.998  14.624  15.742  0.00  0.00     0.005 C 
ENDBRANCH  16  17
ENDBRANCH  15  16
ENDBRANCH   2  15
TORSDOF 3
ENDMDL
MODEL 3
REMARK VINA RESULT:      -6.9      1.459      3.084
REMARK  3 active torsions:
REMARK  status: ('A' for Active; 'I' for Inactive)
REMARK    1  A    between atoms: C1_2  and  C6_3 
REMARK    2  A    between atoms: C6_3  and  C7_4 
REMARK    3  A    between atoms: C7_4  and  C8_5 
ROOT
ATOM      1  N1  BDI d          14.550  16.878  20.568  0.00  0.00    -0.338 N 
ATOM      2  C1  BDI d          15.426  17.114  19.605  0.00  0.00     0.105 A 
ATOM      3  N2  BDI d          16.554  17.318  20.045  0.00  0.00    -0.227 NA
ATOM      4  C2  BDI d          16.605  17.248  21.469  0.00  0.00     0.160 A 
ATOM      5  C4  BDI d          17.694  17.414  22.478  0.00  0.00     0.291 A 
ATOM      6  N5  BDI d          17.311  17.260  23.816  0.00  0.00    -0.262 N 
ATOM      7  N4  BDI d          15.904  16.948  24.238  0.00  0.00    -0.262 N 
ATOM      8  C5  BDI d          14.843  16.780  23.328  0.00  0.00     0.289 A 
ATOM      9  O1  BDI d          13.652  16.517  23.669  0.00  0.00    -0.264 OA
ATOM     10  C3  BDI d          15.252  16.949  21.836  0.00  0.00     0.138 A 
ATOM     11  O3  BDI d          18.841  17.669  22.117  0.00  0.00    -0.264 OA
ATOM     12  H1  BDI d          13.548  16.680  20.440  0.00  0.00     0.167 HD
ATOM     13  H11 BDI d          18.009  17.364  24.525  0.00  0.00     0.190 HD
ATOM     14  H12 BDI d          15.711  16.854  25.215  0.00  0.00     0.190 HD
ENDROOT
BRANCH   2  15
ATOM     15  C6  BDI d          15.035  17.123  18.126  0.00  0.00     0.078 C 
BRANCH  15  16
ATOM     16  C7  BDI d          14.762  15.741  17.450  0.00  0.00     0.007 C 
BRANCH  16  17
ATOM     17  C8  BDI d          13.229  15.435  17.505  0.00  0.00    -0.004 C 
ATOM     18  C9  BDI d          12.869  14.342  18.541  0.00  0.00     0.005 C 
ENDBRANCH  16  17
ENDBRANCH  15  16
ENDBRANCH   2  15
TORSDOF 3
ENDMDL
MODEL 4
REMARK VINA RESULT:      -6.9      1.247      1.494
REMARK  3 active torsions:
REMARK  status: ('A' for Active; 'I' for Inactive)
REMARK    1  A    between atoms: C1_2  and  C6_3 
REMARK    2  A    between atoms: C6_3  and  C7_4 
REMARK    3  A    between atoms: C7_4  and  C8_5 
ROOT
ATOM      1  N1  BDI d          16.338  17.190  20.007  0.00  0.00    -0.338 N 
ATOM      2  C1  BDI d          15.075  16.919  19.722  0.00  0.00     0.105 A 
ATOM      3  N2  BDI d          14.399  16.749  20.733  0.00  0.00    -0.227 NA
ATOM      4  C2  BDI d          15.163  16.888  21.930  0.00  0.00     0.160 A 
ATOM      5  C4  BDI d          14.841  16.783  23.385  0.00  0.00     0.291 A 
ATOM      6  N5  BDI d          15.912  16.996  24.261  0.00  0.00    -0.262 N 
ATOM      7  N4  BDI d          17.305  17.312  23.796  0.00  0.00    -0.262 N 
ATOM      8  C5  BDI d          17.660  17.423  22.438  0.00  0.00     0.289 A 
ATOM      9  O1  BDI d          18.830  17.688  22.031  0.00  0.00    -0.264 OA
ATOM     10  C3  BDI d          16.480  17.188  21.451  0.00  0.00     0.138 A 
ATOM     11  O3  BDI d          13.696  16.525  23.750  0.00  0.00    -0.264 OA
ATOM     12  H1  BDI d          17.088  17.370  19.324  0.00  0.00     0.167 HD
ATOM     13  H11 BDI d          15.741  16.934  25.245  0.00  0.00     0.190 HD
ATOM     14  H12 BDI d          18.016  17.449  24.485  0.00  0.00     0.190 HD
ENDROOT
BRANCH   2  15
ATOM     15  C6  BDI d          14.558  16.835  18.284  0.00  0.00     0.078 C 
BRANCH  15  16
ATOM     16  C7  BDI d          14.388  15.408  17.669  0.00  0.00     0.007 C 
BRANCH  16  17
ATOM     17  C8  BDI d          12.874  15.017  17.688  0.00  0.00    -0.004 C 
ATOM     18  C9  BDI d          12.255  14.928  16.272  0.00  0.00     0.005 C 
ENDBRANCH  16  17
ENDBRANCH  15  16
ENDBRANCH   2  15
TORSDOF 3
ENDMDL
MODEL 5
REMARK VINA RESULT:      -6.7      1.987      2.350
REMARK  3 active torsions:
REMARK  status: ('A' for Active; 'I' for Inactive)
REMARK    1  A    between atoms: C1_2  and  C6_3 
REMARK    2  A    between atoms: C6_3  and  C7_4 
REMARK    3  A    between atoms: C7_4  and  C8_5 
ROOT
ATOM      1  N1  BDI d          16.838  17.261  20.266  0.00  0.00    -0.338 N 
ATOM      2  C1  BDI d          15.729  16.977  19.606  0.00  0.00     0.105 A 
ATOM      3  N2  BDI d          14.784  16.759  20.360  0.00  0.00    -0.227 NA
ATOM      4  C2  BDI d          15.147  16.870  21.735  0.00  0.00     0.160 A 
ATOM      5  C4  BDI d          14.404  16.708  23.020  0.00  0.00     0.291 A 
ATOM      6  N5  BDI d          15.154  16.910  24.185  0.00  0.00    -0.262 N 
ATOM      7  N4  BDI d          16.614  17.268  24.172  0.00  0.00    -0.262 N 
ATOM      8  C5  BDI d          17.358  17.434  22.989  0.00  0.00     0.289 A 
ATOM      9  O1  BDI d          18.588  17.736  22.962  0.00  0.00    -0.264 OA
ATOM     10  C3  BDI d          16.538  17.212  21.685  0.00  0.00     0.138 A 
ATOM     11  O3  BDI d          13.210  16.416  23.015  0.00  0.00    -0.264 OA
ATOM     12  H1  BDI d          17.754  17.480  19.847  0.00  0.00     0.167 HD
ATOM     13  H11 BDI d          14.697  16.811  25.069  0.00  0.00     0.190 HD
ATOM     14  H12 BDI d          17.079  17.395  25.048  0.00  0.00     0.190 HD
ENDROOT
BRANCH   2  15
ATOM     15  C6  BDI d          15.672  16.933  18.077  0.00  0.00     0.078 C 
BRANCH  15  16
ATOM     16  C7  BDI d          16.421  18.064  17.301  0.00  0.00     0.007 C 
BRANCH  16  17
ATOM     17  C8  BDI d          15.687  18.333  15.947  0.00  0.00    -0.004 C 
ATOM     18  C9  BDI d          14.150  18.442  16.104  0.00  0.00     0.005 C 
ENDBRANCH  16  17
ENDBRANCH  15  16
ENDBRANCH   2  15
TORSDOF 3
ENDMDL
MODEL 6
REMARK VINA RESULT:      -6.4      4.358      6.829
REMARK  3 active torsions:
REMARK  status: ('A' for Active; 'I' for Inactive)
REMARK    1  A    between atoms: C1_2  and  C6_3 
REMARK    2  A    between atoms: C6_3  and  C7_4 
REMARK    3  A    between atoms: C7_4  and  C8_5 
ROOT
ATOM      1  N1  BDI d          15.535  16.950  16.075  0.00  0.00    -0.338 N 
ATOM      2  C1  BDI d          15.511  17.045  17.393  0.00  0.00     0.105 A 
ATOM      3  N2  BDI d          14.605  16.380  17.889  0.00  0.00    -0.227 NA
ATOM      4  C2  BDI d          13.831  15.695  16.906  0.00  0.00     0.160 A 
ATOM      5  C4  BDI d          12.650  14.783  16.967  0.00  0.00     0.291 A 
ATOM      6  N5  BDI d          12.180  14.314  15.734  0.00  0.00    -0.262 N 
ATOM      7  N4  BDI d          12.805  14.689  14.419  0.00  0.00    -0.262 N 
ATOM      8  C5  BDI d          13.919  15.543  14.308  0.00  0.00     0.289 A 
ATOM      9  O1  BDI d          14.456  15.868  13.208  0.00  0.00    -0.264 OA
ATOM     10  C3  BDI d          14.452  16.073  15.671  0.00  0.00     0.138 A 
ATOM     11  O3  BDI d          12.151  14.485  18.050  0.00  0.00    -0.264 OA
ATOM     12  H1  BDI d          16.204  17.417  15.446  0.00  0.00     0.167 HD
ATOM     13  H11 BDI d          11.391  13.701  15.727  0.00  0.00     0.190 HD
ATOM     14  H12 BDI d          12.410  14.313  13.581  0.00  0.00     0.190 HD
ENDROOT
BRANCH   2  15
ATOM     15  C6  BDI d          16.515  17.898  18.173  0.00  0.00     0.078 C 
BRANCH  15  16
ATOM     16  C7  BDI d          17.543  17.144  19.077  0.00  0.00     0.007 C 
BRANCH  16  17
ATOM     17  C8  BDI d          17.318  17.560  20.568  0.00  0.00    -0.004 C 
ATOM     18  C9  BDI d          16.054  16.917  21.191  0.00  0.00     0.005 C 
ENDBRANCH  16  17
ENDBRANCH  15  16
ENDBRANCH   2  15
TORSDOF 3
ENDMDL
MODEL 7
REMARK VINA RESULT:      -6.1      3.613      6.423
REMARK  3 active torsions:
REMARK  status: ('A' for Active; 'I' for Inactive)
REMARK    1  A    between atoms: C1_2  and  C6_3 
REMARK    2  A    between atoms: C6_3  and  C7_4 
REMARK    3  A    between atoms: C7_4  and  C8_5 
ROOT
ATOM      1  N1  BDI d          15.938  15.955  19.462  0.00  0.00    -0.338 N 
ATOM      2  C1  BDI d          16.561  16.988  18.919  0.00  0.00     0.105 A 
ATOM      3  N2  BDI d          16.123  17.258  17.804  0.00  0.00    -0.227 NA
ATOM      4  C2  BDI d          15.069  16.383  17.405  0.00  0.00     0.160 A 
ATOM      5  C4  BDI d          14.218  16.274  16.182  0.00  0.00     0.291 A 
ATOM      6  N5  BDI d          13.272  15.242  16.191  0.00  0.00    -0.262 N 
ATOM      7  N4  BDI d          13.101  14.292  17.342  0.00  0.00    -0.262 N 
ATOM      8  C5  BDI d          13.876  14.353  18.516  0.00  0.00     0.289 A 
ATOM      9  O1  BDI d          13.744  13.560  19.494  0.00  0.00    -0.264 OA
ATOM     10  C3  BDI d          14.934  15.495  18.521  0.00  0.00     0.138 A 
ATOM     11  O3  BDI d          14.369  17.060  15.249  0.00  0.00    -0.264 OA
ATOM     12  H1  BDI d          16.132  15.549  20.389  0.00  0.00     0.167 HD
ATOM     13  H11 BDI d          12.681  15.132  15.391  0.00  0.00     0.190 HD
ATOM     14  H12 BDI d          12.402  13.581  17.271  0.00  0.00     0.190 HD
ENDROOT
BRANCH   2  15
ATOM     15  C6  BDI d          17.693  17.731  19.633  0.00  0.00     0.078 C 
BRANCH  15  16
ATOM     16  C7  BDI d          18.210  17.124  20.977  0.00  0.00     0.007 C 
BRANCH  16  17
ATOM     17  C8  BDI d          17.403  17.744  22.165  0.00  0.00    -0.004 C 
ATOM     18  C9  BDI d          17.904  17.266  23.550  0.00  0.00     0.005 C 
ENDBRANCH  16  17
ENDBRANCH  15  16
ENDBRANCH   2  15
TORSDOF 3
ENDMDL
MODEL 8
REMARK VINA RESULT:      -6.0      3.253      6.215
REMARK  3 active torsions:
REMARK  status: ('A' for Active; 'I' for Inactive)
REMARK    1  A    between atoms: C1_2  and  C6_3 
REMARK    2  A    between atoms: C6_3  and  C7_4 
REMARK    3  A    between atoms: C7_4  and  C8_5 
ROOT
ATOM      1  N1  BDI d          15.927  17.037  18.664  0.00  0.00    -0.338 N 
ATOM      2  C1  BDI d          15.647  16.593  19.877  0.00  0.00     0.105 A 
ATOM      3  N2  BDI d          14.723  15.783  19.872  0.00  0.00    -0.227 NA
ATOM      4  C2  BDI d          14.209  15.551  18.562  0.00  0.00     0.160 A 
ATOM      5  C4  BDI d          13.119  14.690  18.013  0.00  0.00     0.291 A 
ATOM      6  N5  BDI d          12.931  14.758  16.627  0.00  0.00    -0.262 N 
ATOM      7  N4  BDI d          13.758  15.631  15.727  0.00  0.00    -0.262 N 
ATOM      8  C5  BDI d          14.796  16.459  16.194  0.00  0.00     0.289 A 
ATOM      9  O1  BDI d          15.501  17.201  15.447  0.00  0.00    -0.264 OA
ATOM     10  C3  BDI d          15.017  16.395  17.733  0.00  0.00     0.138 A 
ATOM     11  O3  BDI d          12.452  13.980  18.762  0.00  0.00    -0.264 OA
ATOM     12  H1  BDI d          16.660  17.719  18.422  0.00  0.00     0.167 HD
ATOM     13  H11 BDI d          12.211  14.197  16.217  0.00  0.00     0.190 HD
ATOM     14  H12 BDI d          13.561  15.624  14.746  0.00  0.00     0.190 HD
ENDROOT
BRANCH   2  15
ATOM     15  C6  BDI d          16.411  17.060  21.118  0.00  0.00     0.078 C 
BRANCH  15  16
ATOM     16  C7  BDI d          15.603  17.177  22.451  0.00  0.00     0.007 C 
BRANCH  16  17
ATOM     17  C8  BDI d          16.590  17.074  23.661  0.00  0.00    -0.004 C 
ATOM     18  C9  BDI d          17.958  17.745  23.384  0.00  0.00     0.005 C 
ENDBRANCH  16  17
ENDBRANCH  15  16
ENDBRANCH   2  15
TORSDOF 3
ENDMDL
MODEL 9
REMARK VINA RESULT:      -5.9      2.649      4.028
REMARK  3 active torsions:
REMARK  status: ('A' for Active; 'I' for Inactive)
REMARK    1  A    between atoms: C1_2  and  C6_3 
REMARK    2  A    between atoms: C6_3  and  C7_4 
REMARK    3  A    between atoms: C7_4  and  C8_5 
ROOT
ATOM      1  N1  BDI d          15.379  17.348  19.048  0.00  0.00    -0.338 N 
ATOM      2  C1  BDI d          16.136  17.589  17.991  0.00  0.00     0.105 A 
ATOM      3  N2  BDI d          17.324  17.691  18.285  0.00  0.00    -0.227 NA
ATOM      4  C2  BDI d          17.555  17.525  19.683  0.00  0.00     0.160 A 
ATOM      5  C4  BDI d          18.776  17.554  20.544  0.00  0.00     0.291 A 
ATOM      6  N5  BDI d          18.561  17.338  21.910  0.00  0.00    -0.262 N 
ATOM      7  N4  BDI d          17.202  17.090  22.500  0.00  0.00    -0.262 N 
ATOM      8  C5  BDI d          16.021  17.051  21.733  0.00  0.00     0.289 A 
ATOM      9  O1  BDI d          14.869  16.843  22.216  0.00  0.00    -0.264 OA
ATOM     10  C3  BDI d          16.244  17.290  20.212  0.00  0.00     0.138 A 
ATOM     11  O3  BDI d          19.881  17.757  20.046  0.00  0.00    -0.264 OA
ATOM     12  H1  BDI d          14.356  17.224  19.046  0.00  0.00     0.167 HD
ATOM     13  H11 BDI d          19.351  17.350  22.524  0.00  0.00     0.190 HD
ATOM     14  H12 BDI d          17.131  16.945  23.487  0.00  0.00     0.190 HD
ENDROOT
BRANCH   2  15
ATOM     15  C6  BDI d          15.557  17.720  16.580  0.00  0.00     0.078 C 
BRANCH  15  16
ATOM     16  C7  BDI d          14.070  18.188  16.459  0.00  0.00     0.007 C 
BRANCH  16  17
ATOM     17  C8  BDI d          13.230  17.058  15.777  0.00  0.00    -0.004 C 
ATOM     18  C9  BDI d          13.093  15.792  16.657  0.00  0.00     0.005 C 
ENDBRANCH  16  17
ENDBRANCH  15  16
ENDBRANCH   2  15
TORSDOF 3
ENDMDL
MODEL 10
REMARK VINA RESULT:      -5.9      4.447      6.900
REMARK  3 active torsions:
REMARK  status: ('A' for Active; 'I' for Inactive)
REMARK    1  A    between atoms: C1_2  and  C6_3 
REMARK    2  A    between atoms: C6_3  and  C7_4 
REMARK    3  A    between atoms: C7_4  and  C8_5 
ROOT
ATOM      1  N1  BDI d          14.375  15.264  17.004  0.00  0.00    -0.338 N 
ATOM      2  C1  BDI d          13.532  15.458  18.004  0.00  0.00     0.105 A 
ATOM      3  N2  BDI d          12.559  16.127  17.666  0.00  0.00    -0.227 NA
ATOM      4  C2  BDI d          12.611  16.509  16.292  0.00  0.00     0.160 A 
ATOM      5  C4  BDI d          11.712  17.303  15.402  0.00  0.00     0.291 A 
ATOM      6  N5  BDI d          12.144  17.449  14.078  0.00  0.00    -0.262 N 
ATOM      7  N4  BDI d          13.423  16.857  13.560  0.00  0.00    -0.262 N 
ATOM      8  C5  BDI d          14.304  16.100  14.357  0.00  0.00     0.289 A 
ATOM      9  O1  BDI d          15.385  15.595  13.934  0.00  0.00    -0.264 OA
ATOM     10  C3  BDI d          13.837  15.929  15.832  0.00  0.00     0.138 A 
ATOM     11  O3  BDI d          10.668  17.780  15.840  0.00  0.00    -0.264 OA
ATOM     12  H1  BDI d          15.257  14.734  17.050  0.00  0.00     0.167 HD
ATOM     13  H11 BDI d          11.572  17.974  13.447  0.00  0.00     0.190 HD
ATOM     14  H12 BDI d          13.662  17.007  12.600  0.00  0.00     0.190 HD
ENDROOT
BRANCH   2  15
ATOM     15  C6  BDI d          13.780  14.897  19.407  0.00  0.00     0.078 C 
BRANCH  15  16
ATOM     16  C7  BDI d          13.910  15.928  20.574  0.00  0.00     0.007 C 
BRANCH  16  17
ATOM     17  C8  BDI d          15.055  16.940  20.242  0.00  0.00    -0.004 C 
ATOM     18  C9  BDI d          16.165  16.973  21.321  0.00  0.00     0.005 C 
ENDBRANCH  16  17
ENDBRANCH  15  16
ENDBRANCH   2  15
TORSDOF 3
ENDMDL
