MODEL 1
REMARK VINA RESULT:     -11.8      0.000      0.000
REMARK  6 active torsions:
REMARK  status: ('A' for Active; 'I' for Inactive)
REMARK    1  A    between atoms: C9_6  and  O37_5 
REMARK    2  A    between atoms: C6_11  and  C7_10 
REMARK    3  A    between atoms: C25_32  and  N3_18 
REMARK    4  A    between atoms: C21_30  and  N2_21 
REMARK    5  A    between atoms: C23_34  and  N4_35 
REMARK    6  A    between atoms: O6_38  and  C22_37 
ROOT
ATOM      1  C21 UCN d           5.462   4.238  13.657  0.00  0.00     0.168 C 
ATOM      2  O4  UCN d           5.904   3.496  14.778  0.00  0.00    -0.333 OA
ATOM      3  C25 UCN d           5.634   3.776  16.157  0.00  0.00     0.233 C 
ATOM      4  C24 UCN d           4.112   4.165  16.326  0.00  0.00     0.090 C 
ATOM      5  C23 UCN d           3.333   4.132  14.980  0.00  0.00     0.223 C 
ATOM      6  C22 UCN d           4.066   4.988  13.878  0.00  0.00     0.207 C 
ATOM      7  C26 UCN d           5.275   3.185  12.569  0.00  0.00     0.074 C 
ENDROOT
BRANCH   5   8
ATOM      8  N4  UCN d           1.872   4.645  15.302  0.00  0.00    -0.072 N 
ATOM      9  H16 UCN d           1.349   4.711  14.443  0.00  0.00     0.277 HD
ATOM     10  H17 UCN d           1.929   5.555  15.731  0.00  0.00     0.277 HD
ATOM     11  C28 UCN d           1.168   3.704  16.235  0.00  0.00     0.267 C 
ENDBRANCH   5   8
BRANCH   6  12
ATOM     12  O6  UCN d           4.280   6.304  14.458  0.00  0.00    -0.384 OA
ATOM     13  C27 UCN d           5.195   7.085  13.705  0.00  0.00     0.202 C 
ENDBRANCH   6  12
BRANCH   3  14
ATOM     14  N3  UCN d           6.450   4.930  16.603  0.00  0.00    -0.316 N 
ATOM     15  C20 UCN d           7.740   5.143  16.207  0.00  0.00     0.048 A 
ATOM     16  C5  UCN d           8.119   6.495  16.569  0.00  0.00     0.004 A 
ATOM     17  C1  UCN d           8.649   4.250  15.538  0.00  0.00     0.030 A 
ATOM     18  C6  UCN d           6.998   7.075  17.207  0.00  0.00     0.022 A 
ATOM     19  C4  UCN d           9.426   6.915  16.239  0.00  0.00     0.014 A 
ATOM     20  C19 UCN d           5.927   6.101  17.245  0.00  0.00     0.077 A 
ATOM     21  C18 UCN d           4.698   6.369  17.826  0.00  0.00     0.077 A 
ATOM     22  N2  UCN d           3.503   5.574  18.012  0.00  0.00    -0.308 N 
ATOM     23  C11 UCN d           4.404   7.670  18.433  0.00  0.00     0.017 A 
ATOM     24  C17 UCN d           2.499   6.334  18.690  0.00  0.00     0.049 A 
ATOM     25  C12 UCN d           3.076   7.642  18.948  0.00  0.00     0.004 A 
ATOM     26  C16 UCN d           1.194   6.064  19.121  0.00  0.00     0.030 A 
ATOM     27  C13 UCN d           2.294   8.604  19.624  0.00  0.00     0.014 A 
ATOM     28  C14 UCN d           0.986   8.340  20.050  0.00  0.00     0.001 A 
ATOM     29  C15 UCN d           0.442   7.026  19.781  0.00  0.00     0.002 A 
ATOM     30  C10 UCN d           5.468   8.647  18.391  0.00  0.00     0.020 A 
ATOM     31  C9  UCN d           5.432  10.073  18.955  0.00  0.00     0.257 A 
ATOM     32  C7  UCN d           6.656   8.395  17.843  0.00  0.00     0.057 A 
ATOM     33  N1  UCN d           6.775  10.483  18.611  0.00  0.00    -0.326 N 
ATOM     34  H3  UCN d           7.115  11.396  18.838  0.00  0.00     0.165 HD
ATOM     35  C8  UCN d           7.548   9.587  17.973  0.00  0.00     0.255 A 
ATOM     36  O5  UCN d           8.704   9.722  17.600  0.00  0.00    -0.268 OA
ATOM     37  C3  UCN d          10.315   6.069  15.594  0.00  0.00     0.001 A 
ATOM     38  C2  UCN d           9.934   4.726  15.238  0.00  0.00     0.002 A 
BRANCH  31  39
ATOM     39  O37 UCN d           5.234  10.057  20.365  0.00  0.00    -0.372 OA
ATOM     40  H1  UCN d           5.426   9.189  20.700  0.00  0.00     0.212 HD
ENDBRANCH  31  39
ENDBRANCH   3  14
TORSDOF 6
ENDMDL
MODEL 2
REMARK VINA RESULT:     -11.6      1.066      5.280
REMARK  6 active torsions:
REMARK  status: ('A' for Active; 'I' for Inactive)
REMARK    1  A    between atoms: C9_6  and  O37_5 
REMARK    2  A    between atoms: C6_11  and  C7_10 
REMARK    3  A    between atoms: C25_32  and  N3_18 
REMARK    4  A    between atoms: C21_30  and  N2_21 
REMARK    5  A    between atoms: C23_34  and  N4_35 
REMARK    6  A    between atoms: O6_38  and  C22_37 
ROOT
ATOM      1  C21 UCN d           4.694   4.153  14.608  0.00  0.00     0.168 C 
ATOM      2  O4  UCN d           5.008   3.797  15.942  0.00  0.00    -0.333 OA
ATOM      3  C25 UCN d           4.189   3.994  17.100  0.00  0.00     0.233 C 
ATOM      4  C24 UCN d           2.699   3.590  16.765  0.00  0.00     0.090 C 
ATOM      5  C23 UCN d           2.529   3.093  15.301  0.00  0.00     0.223 C 
ATOM      6  C22 UCN d           3.129   4.128  14.276  0.00  0.00     0.207 C 
ATOM      7  C26 UCN d           5.381   3.079  13.770  0.00  0.00     0.074 C 
ENDROOT
BRANCH   5   8
ATOM      8  N4  UCN d           0.981   2.837  15.098  0.00  0.00    -0.072 N 
ATOM      9  H16 UCN d           0.813   2.577  14.139  0.00  0.00     0.277 HD
ATOM     10  H17 UCN d           0.476   3.683  15.311  0.00  0.00     0.277 HD
ATOM     11  C28 UCN d           0.498   1.737  15.998  0.00  0.00     0.267 C 
ENDBRANCH   5   8
BRANCH   6  12
ATOM     12  O6  UCN d           2.521   5.412  14.587  0.00  0.00    -0.384 OA
ATOM     13  C27 UCN d           3.417   6.496  14.395  0.00  0.00     0.202 C 
ENDBRANCH   6  12
BRANCH   3  14
ATOM     14  N3  UCN d           4.197   5.426  17.483  0.00  0.00    -0.316 N 
ATOM     15  C20 UCN d           3.158   6.044  18.121  0.00  0.00     0.048 A 
ATOM     16  C5  UCN d           3.615   7.328  18.615  0.00  0.00     0.004 A 
ATOM     17  C1  UCN d           1.809   5.585  18.325  0.00  0.00     0.030 A 
ATOM     18  C6  UCN d           4.972   7.451  18.235  0.00  0.00     0.022 A 
ATOM     19  C4  UCN d           2.683   8.126  19.314  0.00  0.00     0.014 A 
ATOM     20  C19 UCN d           5.364   6.258  17.512  0.00  0.00     0.077 A 
ATOM     21  C18 UCN d           6.637   6.088  16.992  0.00  0.00     0.077 A 
ATOM     22  N2  UCN d           7.253   5.026  16.225  0.00  0.00    -0.308 N 
ATOM     23  C11 UCN d           7.674   7.110  17.154  0.00  0.00     0.017 A 
ATOM     24  C17 UCN d           8.613   5.352  15.927  0.00  0.00     0.049 A 
ATOM     25  C12 UCN d           8.863   6.656  16.513  0.00  0.00     0.004 A 
ATOM     26  C16 UCN d           9.641   4.706  15.227  0.00  0.00     0.030 A 
ATOM     27  C13 UCN d          10.143   7.232  16.360  0.00  0.00     0.014 A 
ATOM     28  C14 UCN d          11.176   6.587  15.667  0.00  0.00     0.001 A 
ATOM     29  C15 UCN d          10.893   5.289  15.092  0.00  0.00     0.002 A 
ATOM     30  C10 UCN d           7.289   8.298  17.881  0.00  0.00     0.020 A 
ATOM     31  C9  UCN d           8.170   9.517  18.186  0.00  0.00     0.257 A 
ATOM     32  C7  UCN d           6.066   8.475  18.376  0.00  0.00     0.057 A 
ATOM     33  N1  UCN d           7.199  10.320  18.896  0.00  0.00    -0.326 N 
ATOM     34  H3  UCN d           7.435  11.223  19.257  0.00  0.00     0.165 HD
ATOM     35  C8  UCN d           5.968   9.805  19.052  0.00  0.00     0.255 A 
ATOM     36  O5  UCN d           5.005  10.311  19.608  0.00  0.00    -0.268 OA
ATOM     37  C3  UCN d           1.381   7.701  19.520  0.00  0.00     0.001 A 
ATOM     38  C2  UCN d           0.930   6.424  19.026  0.00  0.00     0.002 A 
BRANCH  31  39
ATOM     39  O37 UCN d           8.595  10.150  16.984  0.00  0.00    -0.372 OA
ATOM     40  H1  UCN d           9.504   9.930  16.816  0.00  0.00     0.212 HD
ENDBRANCH  31  39
ENDBRANCH   3  14
TORSDOF 6
ENDMDL
MODEL 3
REMARK VINA RESULT:     -10.4      2.200      5.542
REMARK  6 active torsions:
REMARK  status: ('A' for Active; 'I' for Inactive)
REMARK    1  A    between atoms: C9_6  and  O37_5 
REMARK    2  A    between atoms: C6_11  and  C7_10 
REMARK    3  A    between atoms: C25_32  and  N3_18 
REMARK    4  A    between atoms: C21_30  and  N2_21 
REMARK    5  A    between atoms: C23_34  and  N4_35 
REMARK    6  A    between atoms: O6_38  and  C22_37 
ROOT
ATOM      1  C21 UCN d           5.153   4.193  13.989  0.00  0.00     0.168 C 
ATOM      2  O4  UCN d           5.299   3.839  15.351  0.00  0.00    -0.333 OA
ATOM      3  C25 UCN d           4.370   3.100  16.153  0.00  0.00     0.233 C 
ATOM      4  C24 UCN d           3.825   1.869  15.325  0.00  0.00     0.090 C 
ATOM      5  C23 UCN d           4.437   1.790  13.897  0.00  0.00     0.223 C 
ATOM      6  C22 UCN d           4.278   3.160  13.135  0.00  0.00     0.207 C 
ATOM      7  C26 UCN d           6.580   4.175  13.450  0.00  0.00     0.074 C 
ENDROOT
BRANCH   5   8
ATOM      8  N4  UCN d           3.715   0.584  13.172  0.00  0.00    -0.072 N 
ATOM      9  H16 UCN d           2.749   0.824  13.015  0.00  0.00     0.277 HD
ATOM     10  H17 UCN d           3.767  -0.233  13.760  0.00  0.00     0.277 HD
ATOM     11  C28 UCN d           4.368   0.283  11.855  0.00  0.00     0.267 C 
ENDBRANCH   5   8
BRANCH   6  12
ATOM     12  O6  UCN d           2.868   3.506  13.205  0.00  0.00    -0.384 OA
ATOM     13  C27 UCN d           2.200   3.312  11.967  0.00  0.00     0.202 C 
ENDBRANCH   6  12
BRANCH   3  14
ATOM     14  N3  UCN d           3.214   3.958  16.502  0.00  0.00    -0.316 N 
ATOM     15  C20 UCN d           1.915   3.537  16.450  0.00  0.00     0.048 A 
ATOM     16  C5  UCN d           1.086   4.503  17.144  0.00  0.00     0.004 A 
ATOM     17  C1  UCN d           1.362   2.355  15.842  0.00  0.00     0.030 A 
ATOM     18  C6  UCN d           1.949   5.525  17.604  0.00  0.00     0.022 A 
ATOM     19  C4  UCN d          -0.301   4.245  17.206  0.00  0.00     0.014 A 
ATOM     20  C19 UCN d           3.304   5.204  17.206  0.00  0.00     0.077 A 
ATOM     21  C18 UCN d           4.380   6.028  17.498  0.00  0.00     0.077 A 
ATOM     22  N2  UCN d           5.792   5.947  17.194  0.00  0.00    -0.308 N 
ATOM     23  C11 UCN d           4.208   7.279  18.242  0.00  0.00     0.017 A 
ATOM     24  C17 UCN d           6.483   7.080  17.728  0.00  0.00     0.049 A 
ATOM     25  C12 UCN d           5.481   7.904  18.381  0.00  0.00     0.004 A 
ATOM     26  C16 UCN d           7.819   7.501  17.723  0.00  0.00     0.030 A 
ATOM     27  C13 UCN d           5.890   9.107  18.994  0.00  0.00     0.014 A 
ATOM     28  C14 UCN d           7.226   9.530  18.996  0.00  0.00     0.001 A 
ATOM     29  C15 UCN d           8.200   8.687  18.335  0.00  0.00     0.002 A 
ATOM     30  C10 UCN d           2.858   7.598  18.647  0.00  0.00     0.020 A 
ATOM     31  C9  UCN d           2.398   8.838  19.424  0.00  0.00     0.257 A 
ATOM     32  C7  UCN d           1.817   6.817  18.363  0.00  0.00     0.057 A 
ATOM     33  N1  UCN d           0.981   8.557  19.474  0.00  0.00    -0.326 N 
ATOM     34  H3  UCN d           0.342   9.182  19.924  0.00  0.00     0.165 HD
ATOM     35  C8  UCN d           0.557   7.423  18.892  0.00  0.00     0.255 A 
ATOM     36  O5  UCN d          -0.587   7.000  18.814  0.00  0.00    -0.268 OA
ATOM     37  C3  UCN d          -0.851   3.112  16.627  0.00  0.00     0.001 A 
ATOM     38  C2  UCN d          -0.023   2.155  15.938  0.00  0.00     0.002 A 
BRANCH  31  39
ATOM     39  O37 UCN d           2.671  10.027  18.690  0.00  0.00    -0.372 OA
ATOM     40  H1  UCN d           2.007  10.144  18.020  0.00  0.00     0.212 HD
ENDBRANCH  31  39
ENDBRANCH   3  14
TORSDOF 6
ENDMDL
MODEL 4
REMARK VINA RESULT:      -9.7      2.551      5.833
REMARK  6 active torsions:
REMARK  status: ('A' for Active; 'I' for Inactive)
REMARK    1  A    between atoms: C9_6  and  O37_5 
REMARK    2  A    between atoms: C6_11  and  C7_10 
REMARK    3  A    between atoms: C25_32  and  N3_18 
REMARK    4  A    between atoms: C21_30  and  N2_21 
REMARK    5  A    between atoms: C23_34  and  N4_35 
REMARK    6  A    between atoms: O6_38  and  C22_37 
ROOT
ATOM      1  C21 UCN d           6.273   5.167  14.815  0.00  0.00     0.168 C 
ATOM      2  O4  UCN d           6.096   4.452  16.023  0.00  0.00    -0.333 OA
ATOM      3  C25 UCN d           5.528   3.146  16.175  0.00  0.00     0.233 C 
ATOM      4  C24 UCN d           6.100   2.190  15.054  0.00  0.00     0.090 C 
ATOM      5  C23 UCN d           7.110   2.908  14.114  0.00  0.00     0.223 C 
ATOM      6  C22 UCN d           6.496   4.238  13.531  0.00  0.00     0.207 C 
ATOM      7  C26 UCN d           7.544   5.977  15.049  0.00  0.00     0.074 C 
ENDROOT
BRANCH   5   8
ATOM      8  N4  UCN d           7.499   1.857  12.997  0.00  0.00    -0.072 N 
ATOM      9  H16 UCN d           7.285   2.244  12.092  0.00  0.00     0.277 HD
ATOM     10  H17 UCN d           6.966   1.014  13.137  0.00  0.00     0.277 HD
ATOM     11  C28 UCN d           8.962   1.530  13.058  0.00  0.00     0.267 C 
ENDBRANCH   5   8
BRANCH   6  12
ATOM     12  O6  UCN d           5.220   3.874  12.936  0.00  0.00    -0.384 OA
ATOM     13  C27 UCN d           4.240   4.889  13.093  0.00  0.00     0.202 C 
ENDBRANCH   6  12
BRANCH   3  14
ATOM     14  N3  UCN d           4.057   3.215  16.004  0.00  0.00    -0.316 N 
ATOM     15  C20 UCN d           3.315   2.224  15.426  0.00  0.00     0.048 A 
ATOM     16  C5  UCN d           1.914   2.473  15.702  0.00  0.00     0.004 A 
ATOM     17  C1  UCN d           3.751   1.087  14.658  0.00  0.00     0.030 A 
ATOM     18  C6  UCN d           1.854   3.663  16.464  0.00  0.00     0.022 A 
ATOM     19  C4  UCN d           0.975   1.551  15.189  0.00  0.00     0.014 A 
ATOM     20  C19 UCN d           3.201   4.156  16.666  0.00  0.00     0.077 A 
ATOM     21  C18 UCN d           3.470   5.321  17.366  0.00  0.00     0.077 A 
ATOM     22  N2  UCN d           4.697   6.023  17.674  0.00  0.00    -0.308 N 
ATOM     23  C11 UCN d           2.397   6.126  17.956  0.00  0.00     0.017 A 
ATOM     24  C17 UCN d           4.420   7.204  18.431  0.00  0.00     0.049 A 
ATOM     25  C12 UCN d           2.978   7.256  18.600  0.00  0.00     0.004 A 
ATOM     26  C16 UCN d           5.211   8.226  18.973  0.00  0.00     0.030 A 
ATOM     27  C13 UCN d           2.420   8.340  19.312  0.00  0.00     0.014 A 
ATOM     28  C14 UCN d           3.208   9.360  19.861  0.00  0.00     0.001 A 
ATOM     29  C15 UCN d           4.641   9.281  19.672  0.00  0.00     0.002 A 
ATOM     30  C10 UCN d           1.052   5.633  17.763  0.00  0.00     0.020 A 
ATOM     31  C9  UCN d          -0.246   6.280  18.265  0.00  0.00     0.257 A 
ATOM     32  C7  UCN d           0.783   4.519  17.084  0.00  0.00     0.057 A 
ATOM     33  N1  UCN d          -1.191   5.325  17.728  0.00  0.00    -0.326 N 
ATOM     34  H3  UCN d          -2.176   5.435  17.865  0.00  0.00     0.165 HD
ATOM     35  C8  UCN d          -0.692   4.286  17.038  0.00  0.00     0.255 A 
ATOM     36  O5  UCN d          -1.306   3.377  16.499  0.00  0.00    -0.268 OA
ATOM     37  C3  UCN d           1.376   0.450  14.449  0.00  0.00     0.001 A 
ATOM     38  C2  UCN d           2.770   0.208  14.176  0.00  0.00     0.002 A 
BRANCH  31  39
ATOM     39  O37 UCN d          -0.424   7.571  17.693  0.00  0.00    -0.372 OA
ATOM     40  H1  UCN d          -1.209   7.970  18.052  0.00  0.00     0.212 HD
ENDBRANCH  31  39
ENDBRANCH   3  14
TORSDOF 6
ENDMDL
MODEL 5
REMARK VINA RESULT:      -9.6      2.076      3.646
REMARK  6 active torsions:
REMARK  status: ('A' for Active; 'I' for Inactive)
REMARK    1  A    between atoms: C9_6  and  O37_5 
REMARK    2  A    between atoms: C6_11  and  C7_10 
REMARK    3  A    between atoms: C25_32  and  N3_18 
REMARK    4  A    between atoms: C21_30  and  N2_21 
REMARK    5  A    between atoms: C23_34  and  N4_35 
REMARK    6  A    between atoms: O6_38  and  C22_37 
ROOT
ATOM      1  C21 UCN d           7.024   4.485  14.836  0.00  0.00     0.168 C 
ATOM      2  O4  UCN d           6.288   3.719  15.772  0.00  0.00    -0.333 OA
ATOM      3  C25 UCN d           4.923   3.913  16.159  0.00  0.00     0.233 C 
ATOM      4  C24 UCN d           4.046   4.193  14.874  0.00  0.00     0.090 C 
ATOM      5  C23 UCN d           4.884   4.176  13.564  0.00  0.00     0.223 C 
ATOM      6  C22 UCN d           6.132   5.131  13.675  0.00  0.00     0.207 C 
ATOM      7  C26 UCN d           7.979   3.478  14.205  0.00  0.00     0.074 C 
ENDROOT
BRANCH   5   8
ATOM      8  N4  UCN d           3.891   4.577  12.400  0.00  0.00    -0.072 N 
ATOM      9  H16 UCN d           4.417   4.989  11.645  0.00  0.00     0.277 HD
ATOM     10  H17 UCN d           3.225   5.248  12.750  0.00  0.00     0.277 HD
ATOM     11  C28 UCN d           3.154   3.375  11.887  0.00  0.00     0.267 C 
ENDBRANCH   5   8
BRANCH   6  12
ATOM     12  O6  UCN d           5.620   6.428  14.087  0.00  0.00    -0.384 OA
ATOM     13  C27 UCN d           5.552   7.351  13.010  0.00  0.00     0.202 C 
ENDBRANCH   6  12
BRANCH   3  14
ATOM     14  N3  UCN d           4.816   5.093  17.048  0.00  0.00    -0.316 N 
ATOM     15  C20 UCN d           5.869   5.911  17.349  0.00  0.00     0.048 A 
ATOM     16  C5  UCN d           5.356   7.117  17.971  0.00  0.00     0.004 A 
ATOM     17  C1  UCN d           7.276   5.706  17.128  0.00  0.00     0.030 A 
ATOM     18  C6  UCN d           3.951   6.976  18.034  0.00  0.00     0.022 A 
ATOM     19  C4  UCN d           6.295   8.099  18.357  0.00  0.00     0.014 A 
ATOM     20  C19 UCN d           3.583   5.699  17.458  0.00  0.00     0.077 A 
ATOM     21  C18 UCN d           2.269   5.264  17.391  0.00  0.00     0.077 A 
ATOM     22  N2  UCN d           1.660   4.047  16.900  0.00  0.00    -0.308 N 
ATOM     23  C11 UCN d           1.163   6.083  17.894  0.00  0.00     0.017 A 
ATOM     24  C17 UCN d           0.240   4.096  17.072  0.00  0.00     0.049 A 
ATOM     25  C12 UCN d          -0.056   5.374  17.694  0.00  0.00     0.004 A 
ATOM     26  C16 UCN d          -0.809   3.212  16.787  0.00  0.00     0.030 A 
ATOM     27  C13 UCN d          -1.401   5.686  17.990  0.00  0.00     0.014 A 
ATOM     28  C14 UCN d          -2.454   4.808  17.701  0.00  0.00     0.001 A 
ATOM     29  C15 UCN d          -2.124   3.540  17.084  0.00  0.00     0.002 A 
ATOM     30  C10 UCN d           1.526   7.361  18.463  0.00  0.00     0.020 A 
ATOM     31  C9  UCN d           0.575   8.404  19.065  0.00  0.00     0.257 A 
ATOM     32  C7  UCN d           2.786   7.784  18.540  0.00  0.00     0.057 A 
ATOM     33  N1  UCN d           1.552   9.397  19.455  0.00  0.00    -0.326 N 
ATOM     34  H3  UCN d           1.278  10.249  19.901  0.00  0.00     0.165 HD
ATOM     35  C8  UCN d           2.842   9.126  19.195  0.00  0.00     0.255 A 
ATOM     36  O5  UCN d           3.820   9.816  19.445  0.00  0.00    -0.268 OA
ATOM     37  C3  UCN d           7.653   7.920  18.151  0.00  0.00     0.001 A 
ATOM     38  C2  UCN d           8.158   6.719  17.534  0.00  0.00     0.002 A 
BRANCH  31  39
ATOM     39  O37 UCN d          -0.113   7.873  20.193  0.00  0.00    -0.372 OA
ATOM     40  H1  UCN d          -1.025   8.137  20.160  0.00  0.00     0.212 HD
ENDBRANCH  31  39
ENDBRANCH   3  14
TORSDOF 6
ENDMDL
MODEL 6
REMARK VINA RESULT:      -9.6      3.066      7.278
REMARK  6 active torsions:
REMARK  status: ('A' for Active; 'I' for Inactive)
REMARK    1  A    between atoms: C9_6  and  O37_5 
REMARK    2  A    between atoms: C6_11  and  C7_10 
REMARK    3  A    between atoms: C25_32  and  N3_18 
REMARK    4  A    between atoms: C21_30  and  N2_21 
REMARK    5  A    between atoms: C23_34  and  N4_35 
REMARK    6  A    between atoms: O6_38  and  C22_37 
ROOT
ATOM      1  C21 UCN d           3.824   5.308  14.665  0.00  0.00     0.168 C 
ATOM      2  O4  UCN d           4.181   4.156  15.406  0.00  0.00    -0.333 OA
ATOM      3  C25 UCN d           5.297   4.015  16.293  0.00  0.00     0.233 C 
ATOM      4  C24 UCN d           5.415   5.305  17.198  0.00  0.00     0.090 C 
ATOM      5  C23 UCN d           4.307   6.353  16.894  0.00  0.00     0.223 C 
ATOM      6  C22 UCN d           4.249   6.687  15.355  0.00  0.00     0.207 C 
ATOM      7  C26 UCN d           2.301   5.249  14.605  0.00  0.00     0.074 C 
ENDROOT
BRANCH   5   8
ATOM      8  N4  UCN d           4.629   7.612  17.795  0.00  0.00    -0.072 N 
ATOM      9  H16 UCN d           4.706   8.427  17.208  0.00  0.00     0.277 HD
ATOM     10  H17 UCN d           5.502   7.460  18.275  0.00  0.00     0.277 HD
ATOM     11  C28 UCN d           3.544   7.837  18.807  0.00  0.00     0.267 C 
ENDBRANCH   5   8
BRANCH   6  12
ATOM     12  O6  UCN d           5.600   7.058  14.965  0.00  0.00    -0.384 OA
ATOM     13  C27 UCN d           5.863   6.788  13.596  0.00  0.00     0.202 C 
ENDBRANCH   6  12
BRANCH   3  14
ATOM     14  N3  UCN d           6.549   3.895  15.509  0.00  0.00    -0.316 N 
ATOM     15  C20 UCN d           7.700   4.566  15.814  0.00  0.00     0.048 A 
ATOM     16  C5  UCN d           8.789   3.988  15.051  0.00  0.00     0.004 A 
ATOM     17  C1  UCN d           7.903   5.666  16.720  0.00  0.00     0.030 A 
ATOM     18  C6  UCN d           8.233   2.947  14.272  0.00  0.00     0.022 A 
ATOM     19  C4  UCN d          10.075   4.544  15.230  0.00  0.00     0.014 A 
ATOM     20  C19 UCN d           6.812   2.871  14.541  0.00  0.00     0.077 A 
ATOM     21  C18 UCN d           5.984   1.954  13.913  0.00  0.00     0.077 A 
ATOM     22  N2  UCN d           4.561   1.702  13.986  0.00  0.00    -0.308 N 
ATOM     23  C11 UCN d           6.505   0.994  12.936  0.00  0.00     0.017 A 
ATOM     24  C17 UCN d           4.200   0.629  13.112  0.00  0.00     0.049 A 
ATOM     25  C12 UCN d           5.424   0.196  12.462  0.00  0.00     0.004 A 
ATOM     26  C16 UCN d           2.993  -0.006  12.793  0.00  0.00     0.030 A 
ATOM     27  C13 UCN d           5.356  -0.860  11.527  0.00  0.00     0.014 A 
ATOM     28  C14 UCN d           4.152  -1.502  11.209  0.00  0.00     0.001 A 
ATOM     29  C15 UCN d           2.949  -1.045  11.873  0.00  0.00     0.002 A 
ATOM     30  C10 UCN d           7.924   1.063  12.671  0.00  0.00     0.020 A 
ATOM     31  C9  UCN d           8.722   0.187  11.695  0.00  0.00     0.257 A 
ATOM     32  C7  UCN d           8.726   1.946  13.263  0.00  0.00     0.057 A 
ATOM     33  N1  UCN d          10.030   0.772  11.890  0.00  0.00    -0.326 N 
ATOM     34  H3  UCN d          10.829   0.437  11.391  0.00  0.00     0.165 HD
ATOM     35  C8  UCN d          10.127   1.785  12.767  0.00  0.00     0.255 A 
ATOM     36  O5  UCN d          11.124   2.420  13.075  0.00  0.00    -0.268 OA
ATOM     37  C3  UCN d          10.289   5.602  16.099  0.00  0.00     0.001 A 
ATOM     38  C2  UCN d           9.203   6.175  16.853  0.00  0.00     0.002 A 
BRANCH  31  39
ATOM     39  O37 UCN d           8.261   0.364  10.360  0.00  0.00    -0.372 OA
ATOM     40  H1  UCN d           7.415   0.798  10.373  0.00  0.00     0.212 HD
ENDBRANCH  31  39
ENDBRANCH   3  14
TORSDOF 6
ENDMDL
MODEL 7
REMARK VINA RESULT:      -9.5      3.856      8.451
REMARK  6 active torsions:
REMARK  status: ('A' for Active; 'I' for Inactive)
REMARK    1  A    between atoms: C9_6  and  O37_5 
REMARK    2  A    between atoms: C6_11  and  C7_10 
REMARK    3  A    between atoms: C25_32  and  N3_18 
REMARK    4  A    between atoms: C21_30  and  N2_21 
REMARK    5  A    between atoms: C23_34  and  N4_35 
REMARK    6  A    between atoms: O6_38  and  C22_37 
ROOT
ATOM      1  C21 UCN d          -1.548   6.669  21.133  0.00  0.00     0.168 C 
ATOM      2  O4  UCN d          -1.404   7.303  19.875  0.00  0.00    -0.333 OA
ATOM      3  C25 UCN d          -2.000   6.902  18.636  0.00  0.00     0.233 C 
ATOM      4  C24 UCN d          -3.512   6.515  18.881  0.00  0.00     0.090 C 
ATOM      5  C23 UCN d          -3.938   6.676  20.368  0.00  0.00     0.223 C 
ATOM      6  C22 UCN d          -2.947   5.916  21.328  0.00  0.00     0.207 C 
ATOM      7  C26 UCN d          -1.477   7.817  22.134  0.00  0.00     0.074 C 
ENDROOT
BRANCH   5   8
ATOM      8  N4  UCN d          -5.426   6.150  20.461  0.00  0.00    -0.072 N 
ATOM      9  H16 UCN d          -5.965   6.782  21.032  0.00  0.00     0.277 HD
ATOM     10  H17 UCN d          -5.427   5.234  20.882  0.00  0.00     0.277 HD
ATOM     11  C28 UCN d          -6.050   6.065  19.099  0.00  0.00     0.267 C 
ENDBRANCH   5   8
BRANCH   6  12
ATOM     12  O6  UCN d          -2.864   4.550  20.834  0.00  0.00    -0.384 OA
ATOM     13  C27 UCN d          -1.674   3.896  21.245  0.00  0.00     0.202 C 
ENDBRANCH   6  12
BRANCH   3  14
ATOM     14  N3  UCN d          -1.304   5.705  18.108  0.00  0.00    -0.316 N 
ATOM     15  C20 UCN d          -1.951   4.642  17.543  0.00  0.00     0.048 A 
ATOM     16  C5  UCN d          -0.973   3.812  16.866  0.00  0.00     0.004 A 
ATOM     17  C1  UCN d          -3.352   4.313  17.557  0.00  0.00     0.030 A 
ATOM     18  C6  UCN d           0.286   4.424  17.060  0.00  0.00     0.022 A 
ATOM     19  C4  UCN d          -1.446   2.655  16.208  0.00  0.00     0.014 A 
ATOM     20  C19 UCN d           0.104   5.625  17.849  0.00  0.00     0.077 A 
ATOM     21  C18 UCN d           1.162   6.438  18.222  0.00  0.00     0.077 A 
ATOM     22  N2  UCN d           1.243   7.647  19.013  0.00  0.00    -0.308 N 
ATOM     23  C11 UCN d           2.540   6.132  17.828  0.00  0.00     0.017 A 
ATOM     24  C17 UCN d           2.599   8.093  19.105  0.00  0.00     0.049 A 
ATOM     25  C12 UCN d           3.399   7.137  18.360  0.00  0.00     0.004 A 
ATOM     26  C16 UCN d           3.232   9.172  19.736  0.00  0.00     0.030 A 
ATOM     27  C13 UCN d           4.796   7.331  18.293  0.00  0.00     0.014 A 
ATOM     28  C14 UCN d           5.432   8.412  18.917  0.00  0.00     0.001 A 
ATOM     29  C15 UCN d           4.607   9.346  19.654  0.00  0.00     0.002 A 
ATOM     30  C10 UCN d           2.725   4.939  17.034  0.00  0.00     0.020 A 
ATOM     31  C9  UCN d           4.052   4.386  16.498  0.00  0.00     0.257 A 
ATOM     32  C7  UCN d           1.715   4.146  16.679  0.00  0.00     0.057 A 
ATOM     33  N1  UCN d           3.548   3.204  15.834  0.00  0.00    -0.326 N 
ATOM     34  H3  UCN d           4.161   2.575  15.355  0.00  0.00     0.165 HD
ATOM     35  C8  UCN d           2.223   2.986  15.886  0.00  0.00     0.255 A 
ATOM     36  O5  UCN d           1.595   2.055  15.404  0.00  0.00    -0.268 OA
ATOM     37  C3  UCN d          -2.792   2.323  16.210  0.00  0.00     0.001 A 
ATOM     38  C2  UCN d          -3.759   3.150  16.887  0.00  0.00     0.002 A 
BRANCH  31  39
ATOM     39  O37 UCN d           4.932   4.052  17.566  0.00  0.00    -0.372 OA
ATOM     40  H1  UCN d           4.680   4.535  18.345  0.00  0.00     0.212 HD
ENDBRANCH  31  39
ENDBRANCH   3  14
TORSDOF 6
ENDMDL
MODEL 8
REMARK VINA RESULT:      -9.4      2.267      4.264
REMARK  6 active torsions:
REMARK  status: ('A' for Active; 'I' for Inactive)
REMARK    1  A    between atoms: C9_6  and  O37_5 
REMARK    2  A    between atoms: C6_11  and  C7_10 
REMARK    3  A    between atoms: C25_32  and  N3_18 
REMARK    4  A    between atoms: C21_30  and  N2_21 
REMARK    5  A    between atoms: C23_34  and  N4_35 
REMARK    6  A    between atoms: O6_38  and  C22_37 
ROOT
ATOM      1  C21 UCN d           2.030   3.066  16.242  0.00  0.00     0.168 C 
ATOM      2  O4  UCN d           2.374   4.226  15.505  0.00  0.00    -0.333 OA
ATOM      3  C25 UCN d           3.170   4.285  14.316  0.00  0.00     0.233 C 
ATOM      4  C24 UCN d           2.737   3.124  13.335  0.00  0.00     0.090 C 
ATOM      5  C23 UCN d           1.584   2.253  13.910  0.00  0.00     0.223 C 
ATOM      6  C22 UCN d           1.931   1.736  15.358  0.00  0.00     0.207 C 
ATOM      7  C26 UCN d           0.645   3.380  16.796  0.00  0.00     0.074 C 
ENDROOT
BRANCH   5   8
ATOM      8  N4  UCN d           1.349   1.087  12.869  0.00  0.00    -0.072 N 
ATOM      9  H16 UCN d           0.373   0.836  12.870  0.00  0.00     0.277 HD
ATOM     10  H17 UCN d           1.901   0.288  13.137  0.00  0.00     0.277 HD
ATOM     11  C28 UCN d           1.745   1.516  11.487  0.00  0.00     0.267 C 
ENDBRANCH   5   8
BRANCH   6  12
ATOM     12  O6  UCN d           3.230   1.089  15.261  0.00  0.00    -0.384 OA
ATOM     13  C27 UCN d           3.125  -0.301  14.998  0.00  0.00     0.202 C 
ENDBRANCH   6  12
BRANCH   3  14
ATOM     14  N3  UCN d           4.597   4.083  14.657  0.00  0.00    -0.316 N 
ATOM     15  C20 UCN d           5.423   3.230  13.980  0.00  0.00     0.048 A 
ATOM     16  C5  UCN d           6.793   3.509  14.364  0.00  0.00     0.004 A 
ATOM     17  C1  UCN d           5.093   2.202  13.028  0.00  0.00     0.030 A 
ATOM     18  C6  UCN d           6.746   4.561  15.308  0.00  0.00     0.022 A 
ATOM     19  C4  UCN d           7.808   2.730  13.766  0.00  0.00     0.014 A 
ATOM     20  C19 UCN d           5.363   4.941  15.513  0.00  0.00     0.077 A 
ATOM     21  C18 UCN d           4.989   5.939  16.399  0.00  0.00     0.077 A 
ATOM     22  N2  UCN d           3.704   6.472  16.795  0.00  0.00    -0.308 N 
ATOM     23  C11 UCN d           5.982   6.682  17.180  0.00  0.00     0.017 A 
ATOM     24  C17 UCN d           3.872   7.508  17.767  0.00  0.00     0.049 A 
ATOM     25  C12 UCN d           5.300   7.629  17.998  0.00  0.00     0.004 A 
ATOM     26  C16 UCN d           2.990   8.336  18.475  0.00  0.00     0.030 A 
ATOM     27  C13 UCN d           5.755   8.585  18.931  0.00  0.00     0.014 A 
ATOM     28  C14 UCN d           4.878   9.419  19.637  0.00  0.00     0.001 A 
ATOM     29  C15 UCN d           3.460   9.271  19.386  0.00  0.00     0.002 A 
ATOM     30  C10 UCN d           7.363   6.311  16.971  0.00  0.00     0.020 A 
ATOM     31  C9  UCN d           8.593   6.918  17.659  0.00  0.00     0.257 A 
ATOM     32  C7  UCN d           7.731   5.347  16.130  0.00  0.00     0.057 A 
ATOM     33  N1  UCN d           9.617   6.107  17.038  0.00  0.00    -0.326 N 
ATOM     34  H3  UCN d          10.584   6.231  17.261  0.00  0.00     0.165 HD
ATOM     35  C8  UCN d           9.216   5.182  16.150  0.00  0.00     0.255 A 
ATOM     36  O5  UCN d           9.907   4.395  15.521  0.00  0.00    -0.268 OA
ATOM     37  C3  UCN d           7.509   1.737  12.848  0.00  0.00     0.001 A 
ATOM     38  C2  UCN d           6.146   1.462  12.470  0.00  0.00     0.002 A 
BRANCH  31  39
ATOM     39  O37 UCN d           8.542   6.710  19.067  0.00  0.00    -0.372 OA
ATOM     40  H1  UCN d           9.389   6.912  19.447  0.00  0.00     0.212 HD
ENDBRANCH  31  39
ENDBRANCH   3  14
TORSDOF 6
ENDMDL
MODEL 9
REMARK VINA RESULT:      -9.1      3.716      8.071
REMARK  6 active torsions:
REMARK  status: ('A' for Active; 'I' for Inactive)
REMARK    1  A    between atoms: C9_6  and  O37_5 
REMARK    2  A    between atoms: C6_11  and  C7_10 
REMARK    3  A    between atoms: C25_32  and  N3_18 
REMARK    4  A    between atoms: C21_30  and  N2_21 
REMARK    5  A    between atoms: C23_34  and  N4_35 
REMARK    6  A    between atoms: O6_38  and  C22_37 
ROOT
ATOM      1  C21 UCN d           3.749   5.277  14.499  0.00  0.00     0.168 C 
ATOM      2  O4  UCN d           3.638   3.934  14.930  0.00  0.00    -0.333 OA
ATOM      3  C25 UCN d           4.695   3.094  15.411  0.00  0.00     0.233 C 
ATOM      4  C24 UCN d           5.604   3.915  16.410  0.00  0.00     0.090 C 
ATOM      5  C23 UCN d           5.113   5.378  16.602  0.00  0.00     0.223 C 
ATOM      6  C22 UCN d           4.921   6.099  15.214  0.00  0.00     0.207 C 
ATOM      7  C26 UCN d           2.414   5.901  14.893  0.00  0.00     0.074 C 
ENDROOT
BRANCH   5   8
ATOM      8  N4  UCN d           6.180   6.084  17.532  0.00  0.00    -0.072 N 
ATOM      9  H16 UCN d           7.016   6.261  16.998  0.00  0.00     0.277 HD
ATOM     10  H17 UCN d           6.398   5.477  18.306  0.00  0.00     0.277 HD
ATOM     11  C28 UCN d           5.650   7.384  18.062  0.00  0.00     0.267 C 
ENDBRANCH   5   8
BRANCH   6  12
ATOM     12  O6  UCN d           6.172   5.938  14.492  0.00  0.00    -0.384 OA
ATOM     13  C27 UCN d           6.128   6.513  13.195  0.00  0.00     0.202 C 
ENDBRANCH   6  12
BRANCH   3  14
ATOM     14  N3  UCN d           5.545   2.658  14.278  0.00  0.00    -0.316 N 
ATOM     15  C20 UCN d           6.910   2.619  14.328  0.00  0.00     0.048 A 
ATOM     16  C5  UCN d           7.394   1.862  13.189  0.00  0.00     0.004 A 
ATOM     17  C1  UCN d           7.806   3.192  15.298  0.00  0.00     0.030 A 
ATOM     18  C6  UCN d           6.255   1.459  12.454  0.00  0.00     0.022 A 
ATOM     19  C4  UCN d           8.791   1.701  13.061  0.00  0.00     0.014 A 
ATOM     20  C19 UCN d           5.069   1.955  13.123  0.00  0.00     0.077 A 
ATOM     21  C18 UCN d           3.791   1.737  12.631  0.00  0.00     0.077 A 
ATOM     22  N2  UCN d           2.479   2.142  13.087  0.00  0.00    -0.308 N 
ATOM     23  C11 UCN d           3.563   0.975  11.401  0.00  0.00     0.017 A 
ATOM     24  C17 UCN d           1.470   1.652  12.200  0.00  0.00     0.049 A 
ATOM     25  C12 UCN d           2.162   0.925  11.150  0.00  0.00     0.004 A 
ATOM     26  C16 UCN d           0.074   1.751  12.160  0.00  0.00     0.030 A 
ATOM     27  C13 UCN d           1.397   0.336  10.120  0.00  0.00     0.014 A 
ATOM     28  C14 UCN d          -0.000   0.427  10.079  0.00  0.00     0.001 A 
ATOM     29  C15 UCN d          -0.659   1.161  11.139  0.00  0.00     0.002 A 
ATOM     30  C10 UCN d           4.744   0.472  10.735  0.00  0.00     0.020 A 
ATOM     31  C9  UCN d           4.791  -0.343   9.436  0.00  0.00     0.257 A 
ATOM     32  C7  UCN d           5.975   0.685  11.194  0.00  0.00     0.057 A 
ATOM     33  N1  UCN d           6.225  -0.493   9.321  0.00  0.00    -0.326 N 
ATOM     34  H3  UCN d           6.636  -0.991   8.557  0.00  0.00     0.165 HD
ATOM     35  C8  UCN d           6.982   0.063  10.281  0.00  0.00     0.255 A 
ATOM     36  O5  UCN d           8.201   0.062  10.374  0.00  0.00    -0.268 OA
ATOM     37  C3  UCN d           9.668   2.246  13.985  0.00  0.00     0.001 A 
ATOM     38  C2  UCN d           9.182   2.999  15.114  0.00  0.00     0.002 A 
BRANCH  31  39
ATOM     39  O37 UCN d           4.254   0.402   8.349  0.00  0.00    -0.372 OA
ATOM     40  H1  UCN d           4.955   0.651   7.759  0.00  0.00     0.212 HD
ENDBRANCH  31  39
ENDBRANCH   3  14
TORSDOF 6
ENDMDL
MODEL 10
REMARK VINA RESULT:      -9.1      3.478      6.820
REMARK  6 active torsions:
REMARK  status: ('A' for Active; 'I' for Inactive)
REMARK    1  A    between atoms: C9_6  and  O37_5 
REMARK    2  A    between atoms: C6_11  and  C7_10 
REMARK    3  A    between atoms: C25_32  and  N3_18 
REMARK    4  A    between atoms: C21_30  and  N2_21 
REMARK    5  A    between atoms: C23_34  and  N4_35 
REMARK    6  A    between atoms: O6_38  and  C22_37 
ROOT
ATOM      1  C21 UCN d           1.747   1.518  15.313  0.00  0.00     0.168 C 
ATOM      2  O4  UCN d           2.141   2.515  14.389  0.00  0.00    -0.333 OA
ATOM      3  C25 UCN d           2.607   2.312  13.050  0.00  0.00     0.233 C 
ATOM      4  C24 UCN d           1.699   1.234  12.335  0.00  0.00     0.090 C 
ATOM      5  C23 UCN d           0.564   0.702  13.256  0.00  0.00     0.223 C 
ATOM      6  C22 UCN d           1.140   0.201  14.635  0.00  0.00     0.207 C 
ATOM      7  C26 UCN d           0.648   2.188  16.131  0.00  0.00     0.074 C 
ENDROOT
BRANCH   5   8
ATOM      8  N4  UCN d          -0.174  -0.433  12.438  0.00  0.00    -0.072 N 
ATOM      9  H16 UCN d          -1.151  -0.435  12.685  0.00  0.00     0.277 HD
ATOM     10  H17 UCN d           0.233  -1.325  12.669  0.00  0.00     0.277 HD
ATOM     11  C28 UCN d          -0.041  -0.199  10.961  0.00  0.00     0.267 C 
ENDBRANCH   5   8
BRANCH   6  12
ATOM     12  O6  UCN d           2.199  -0.744  14.318  0.00  0.00    -0.384 OA
ATOM     13  C27 UCN d           1.962  -2.029  14.872  0.00  0.00     0.202 C 
ENDBRANCH   6  12
BRANCH   3  14
ATOM     14  N3  UCN d           3.995   1.791  13.075  0.00  0.00    -0.316 N 
ATOM     15  C20 UCN d           4.434   0.771  12.280  0.00  0.00     0.048 A 
ATOM     16  C5  UCN d           5.883   0.732  12.334  0.00  0.00     0.004 A 
ATOM     17  C1  UCN d           3.676  -0.159  11.485  0.00  0.00     0.030 A 
ATOM     18  C6  UCN d           6.286   1.771  13.204  0.00  0.00     0.022 A 
ATOM     19  C4  UCN d           6.536  -0.259  11.569  0.00  0.00     0.014 A 
ATOM     20  C19 UCN d           5.106   2.456  13.691  0.00  0.00     0.077 A 
ATOM     21  C18 UCN d           5.175   3.516  14.581  0.00  0.00     0.077 A 
ATOM     22  N2  UCN d           4.164   4.329  15.222  0.00  0.00    -0.308 N 
ATOM     23  C11 UCN d           6.459   4.018  15.078  0.00  0.00     0.017 A 
ATOM     24  C17 UCN d           4.775   5.304  16.072  0.00  0.00     0.049 A 
ATOM     25  C12 UCN d           6.209   5.098  15.972  0.00  0.00     0.004 A 
ATOM     26  C16 UCN d           4.284   6.313  16.911  0.00  0.00     0.030 A 
ATOM     27  C13 UCN d           7.065   5.929  16.727  0.00  0.00     0.014 A 
ATOM     28  C14 UCN d           6.579   6.943  17.562  0.00  0.00     0.001 A 
ATOM     29  C15 UCN d           5.145   7.121  17.642  0.00  0.00     0.002 A 
ATOM     30  C10 UCN d           7.638   3.342  14.588  0.00  0.00     0.020 A 
ATOM     31  C9  UCN d           9.096   3.655  14.950  0.00  0.00     0.257 A 
ATOM     32  C7  UCN d           7.582   2.316  13.741  0.00  0.00     0.057 A 
ATOM     33  N1  UCN d           9.746   2.631  14.163  0.00  0.00    -0.326 N 
ATOM     34  H3  UCN d          10.741   2.532  14.157  0.00  0.00     0.165 HD
ATOM     35  C8  UCN d           8.958   1.818  13.439  0.00  0.00     0.255 A 
ATOM     36  O5  UCN d           9.295   0.891  12.717  0.00  0.00    -0.268 OA
ATOM     37  C3  UCN d           5.823  -1.162  10.797  0.00  0.00     0.001 A 
ATOM     38  C2  UCN d           4.383  -1.121  10.749  0.00  0.00     0.002 A 
BRANCH  31  39
ATOM     39  O37 UCN d           9.325   3.470  16.343  0.00  0.00    -0.372 OA
ATOM     40  H1  UCN d           9.821   2.671  16.478  0.00  0.00     0.212 HD
ENDBRANCH  31  39
ENDBRANCH   3  14
TORSDOF 6
ENDMDL
