MODEL 1
REMARK VINA RESULT:      -8.9      0.000      0.000
REMARK  5 active torsions:
REMARK  status: ('A' for Active; 'I' for Inactive)
REMARK    1  A    between atoms: C1_1  and  C7_7 
REMARK    2  A    between atoms: C7_7  and  N1_8 
REMARK    3  A    between atoms: C8_12  and  C1'_13 
REMARK    4  A    between atoms: C5'_17  and  C1''_20 
REMARK    5  A    between atoms: C6'_18  and  O6'_19 
ROOT
ATOM      1  C1  MOL d          44.170  -3.120  26.523  0.00  0.00     0.008 A 
ATOM      2  C2  MOL d          44.266  -1.686  26.549  0.00  0.00     0.017 A 
ATOM      3  C3  MOL d          44.147  -0.946  27.724  0.00  0.00     0.031 A 
ATOM      4  C4  MOL d          43.934  -1.648  28.863  0.00  0.00     0.043 A 
ATOM      5  C5  MOL d          43.837  -2.980  28.914  0.00  0.00    -0.006 A 
ATOM      6  C6  MOL d          43.946  -3.774  27.767  0.00  0.00     0.029 A 
ATOM      7  N3  MOL d          43.809  -1.209  30.062  0.00  0.00    -0.355 N 
ATOM      8  CN4 MOL d          43.644  -3.420  30.152  0.00  0.00     0.044 A 
ATOM      9  C8  MOL d          43.640  -2.266  30.794  0.00  0.00     0.046 A 
ATOM     10  H8  MOL d          43.837  -0.228  30.376  0.00  0.00     0.166 HD
ENDROOT
BRANCH   9  11
ATOM     11  C1' MOL d          43.412  -2.204  32.170  0.00  0.00     0.025 A 
ATOM     12  C2' MOL d          42.490  -3.043  32.788  0.00  0.00     0.016 A 
ATOM     13  C3' MOL d          42.252  -2.987  34.142  0.00  0.00     0.002 A 
ATOM     14  C4' MOL d          42.933  -2.081  34.919  0.00  0.00     0.015 A 
ATOM     15  C5' MOL d          43.884  -1.192  34.369  0.00  0.00     0.008 A 
ATOM     16  C6' MOL d          44.098  -1.286  32.992  0.00  0.00     0.089 A 
BRANCH  15  17
ATOM     17  C1' MOL d          44.547  -0.254  35.194  0.00  0.00    -0.023 A 
ATOM     18  C2' MOL d          45.754  -0.525  35.823  0.00  0.00     0.012 A 
ATOM     19  C3' MOL d          46.376   0.387  36.649  0.00  0.00     0.001 A 
ATOM     20  C4' MOL d          45.816   1.618  36.878  0.00  0.00     0.000 A 
ATOM     21  C5' MOL d          44.610   1.949  36.272  0.00  0.00     0.001 A 
ATOM     22  C6' MOL d          43.992   1.018  35.441  0.00  0.00     0.012 A 
ENDBRANCH  15  17
BRANCH  16  23
ATOM     23  O6' MOL d          45.035  -0.455  32.414  0.00  0.00    -0.359 OA
ATOM     24  H13 MOL d          44.657  -0.039  31.647  0.00  0.00     0.217 HD
ENDBRANCH  16  23
ENDBRANCH   9  11
BRANCH   1  25
ATOM     25  C7  MOL d          44.312  -3.807  25.302  0.00  0.00     0.102 C 
ATOM     26  N2  MOL d          44.127  -5.113  25.262  0.00  0.00    -0.385 N 
ATOM     27  H6  MOL d          43.880  -5.624  26.121  0.00  0.00     0.157 HD
ATOM     28  H7  MOL d          44.232  -5.620  24.372  0.00  0.00     0.157 HD
BRANCH  25  29
ATOM     29  N1  MOL d          44.628  -3.160  24.205  0.00  0.00    -0.385 N 
ATOM     30  H4  MOL d          44.283  -3.492  23.292  0.00  0.00     0.157 HD
ATOM     31  H5  MOL d          45.221  -2.319  24.256  0.00  0.00     0.157 HD
ENDBRANCH  25  29
ENDBRANCH   1  25
TORSDOF 5
ENDMDL
MODEL 2
REMARK VINA RESULT:      -8.4      3.531      4.627
REMARK  5 active torsions:
REMARK  status: ('A' for Active; 'I' for Inactive)
REMARK    1  A    between atoms: C1_1  and  C7_7 
REMARK    2  A    between atoms: C7_7  and  N1_8 
REMARK    3  A    between atoms: C8_12  and  C1'_13 
REMARK    4  A    between atoms: C5'_17  and  C1''_20 
REMARK    5  A    between atoms: C6'_18  and  O6'_19 
ROOT
ATOM      1  C1  MOL d          44.029  -3.055  26.454  0.00  0.00     0.008 A 
ATOM      2  C2  MOL d          44.434  -1.678  26.520  0.00  0.00     0.017 A 
ATOM      3  C3  MOL d          44.118  -0.852  27.597  0.00  0.00     0.031 A 
ATOM      4  C4  MOL d          43.401  -1.413  28.601  0.00  0.00     0.043 A 
ATOM      5  C5  MOL d          42.995  -2.686  28.609  0.00  0.00    -0.006 A 
ATOM      6  C6  MOL d          43.279  -3.560  27.554  0.00  0.00     0.029 A 
ATOM      7  N3  MOL d          43.005  -0.878  29.698  0.00  0.00    -0.355 N 
ATOM      8  CN4 MOL d          42.324  -2.989  29.714  0.00  0.00     0.044 A 
ATOM      9  C8  MOL d          42.378  -1.822  30.328  0.00  0.00     0.046 A 
ATOM     10  H8  MOL d          43.153   0.093  30.011  0.00  0.00     0.166 HD
ENDROOT
BRANCH   9  11
ATOM     11  C1' MOL d          41.744  -1.619  31.556  0.00  0.00     0.025 A 
ATOM     12  C2' MOL d          42.292  -2.102  32.740  0.00  0.00     0.016 A 
ATOM     13  C3' MOL d          41.675  -1.914  33.955  0.00  0.00     0.002 A 
ATOM     14  C4' MOL d          40.482  -1.235  34.017  0.00  0.00     0.015 A 
ATOM     15  C5' MOL d          39.858  -0.714  32.861  0.00  0.00     0.008 A 
ATOM     16  C6' MOL d          40.521  -0.924  31.650  0.00  0.00     0.089 A 
BRANCH  15  17
ATOM     17  C1' MOL d          38.616  -0.043  32.958  0.00  0.00    -0.023 A 
ATOM     18  C2' MOL d          37.429  -0.586  32.489  0.00  0.00     0.012 A 
ATOM     19  C3' MOL d          36.229   0.089  32.562  0.00  0.00     0.001 A 
ATOM     20  C4' MOL d          36.166   1.343  33.117  0.00  0.00     0.000 A 
ATOM     21  C5' MOL d          37.322   1.937  33.608  0.00  0.00     0.001 A 
ATOM     22  C6' MOL d          38.527   1.244  33.527  0.00  0.00     0.012 A 
ENDBRANCH  15  17
BRANCH  16  23
ATOM     23  O6' MOL d          39.962  -0.413  30.497  0.00  0.00    -0.359 OA
ATOM     24  H13 MOL d          40.565   0.207  30.103  0.00  0.00     0.217 HD
ENDBRANCH  16  23
ENDBRANCH   9  11
BRANCH   1  25
ATOM     25  C7  MOL d          44.391  -3.837  25.341  0.00  0.00     0.102 C 
ATOM     26  N2  MOL d          44.726  -3.249  24.209  0.00  0.00    -0.385 N 
ATOM     27  H6  MOL d          44.724  -2.221  24.143  0.00  0.00     0.157 HD
ATOM     28  H7  MOL d          44.989  -3.818  23.392  0.00  0.00     0.157 HD
BRANCH  25  29
ATOM     29  N1  MOL d          44.395  -5.148  25.421  0.00  0.00    -0.385 N 
ATOM     30  H4  MOL d          44.439  -5.716  24.562  0.00  0.00     0.157 HD
ATOM     31  H5  MOL d          44.354  -5.608  26.342  0.00  0.00     0.157 HD
ENDBRANCH  25  29
ENDBRANCH   1  25
TORSDOF 5
ENDMDL
MODEL 3
REMARK VINA RESULT:      -8.4      1.827      2.470
REMARK  5 active torsions:
REMARK  status: ('A' for Active; 'I' for Inactive)
REMARK    1  A    between atoms: C1_1  and  C7_7 
REMARK    2  A    between atoms: C7_7  and  N1_8 
REMARK    3  A    between atoms: C8_12  and  C1'_13 
REMARK    4  A    between atoms: C5'_17  and  C1''_20 
REMARK    5  A    between atoms: C6'_18  and  O6'_19 
ROOT
ATOM      1  C1  MOL d          44.161  -3.093  26.543  0.00  0.00     0.008 A 
ATOM      2  C2  MOL d          44.760  -1.801  26.731  0.00  0.00     0.017 A 
ATOM      3  C3  MOL d          44.764  -1.146  27.961  0.00  0.00     0.031 A 
ATOM      4  C4  MOL d          44.168  -1.792  28.993  0.00  0.00     0.043 A 
ATOM      5  C5  MOL d          43.595  -2.994  28.892  0.00  0.00    -0.006 A 
ATOM      6  C6  MOL d          43.558  -3.697  27.683  0.00  0.00     0.029 A 
ATOM      7  N3  MOL d          44.056  -1.415  30.215  0.00  0.00    -0.355 N 
ATOM      8  CN4 MOL d          43.098  -3.410  30.052  0.00  0.00     0.044 A 
ATOM      9  C8  MOL d          43.426  -2.380  30.810  0.00  0.00     0.046 A 
ATOM     10  H8  MOL d          44.393  -0.536  30.633  0.00  0.00     0.166 HD
ENDROOT
BRANCH   9  11
ATOM     11  C1' MOL d          43.060  -2.326  32.156  0.00  0.00     0.025 A 
ATOM     12  C2' MOL d          43.222  -3.425  32.993  0.00  0.00     0.016 A 
ATOM     13  C3' MOL d          42.860  -3.386  34.320  0.00  0.00     0.002 A 
ATOM     14  C4' MOL d          42.318  -2.238  34.847  0.00  0.00     0.015 A 
ATOM     15  C5' MOL d          42.118  -1.079  34.063  0.00  0.00     0.008 A 
ATOM     16  C6' MOL d          42.504  -1.161  32.724  0.00  0.00     0.089 A 
BRANCH  15  17
ATOM     17  C1' MOL d          41.533   0.077  34.632  0.00  0.00    -0.023 A 
ATOM     18  C2' MOL d          42.271   1.042  35.302  0.00  0.00     0.012 A 
ATOM     19  C3' MOL d          41.687   2.150  35.878  0.00  0.00     0.001 A 
ATOM     20  C4' MOL d          40.330   2.341  35.803  0.00  0.00     0.000 A 
ATOM     21  C5' MOL d          39.538   1.410  35.143  0.00  0.00     0.001 A 
ATOM     22  C6' MOL d          40.142   0.296  34.566  0.00  0.00     0.012 A 
ENDBRANCH  15  17
BRANCH  16  23
ATOM     23  O6' MOL d          42.351  -0.047  31.926  0.00  0.00    -0.359 OA
ATOM     24  H13 MOL d          41.655   0.498  32.275  0.00  0.00     0.217 HD
ENDBRANCH  16  23
ENDBRANCH   9  11
BRANCH   1  25
ATOM     25  C7  MOL d          44.202  -3.705  25.275  0.00  0.00     0.102 C 
ATOM     26  N2  MOL d          44.376  -2.965  24.198  0.00  0.00    -0.385 N 
ATOM     27  H6  MOL d          44.483  -1.945  24.285  0.00  0.00     0.157 HD
ATOM     28  H7  MOL d          44.405  -3.408  23.268  0.00  0.00     0.157 HD
BRANCH  25  29
ATOM     29  N1  MOL d          44.066  -5.006  25.158  0.00  0.00    -0.385 N 
ATOM     30  H4  MOL d          43.478  -5.524  25.826  0.00  0.00     0.157 HD
ATOM     31  H5  MOL d          44.547  -5.507  24.398  0.00  0.00     0.157 HD
ENDBRANCH  25  29
ENDBRANCH   1  25
TORSDOF 5
ENDMDL
MODEL 4
REMARK VINA RESULT:      -7.6      2.960      8.294
REMARK  5 active torsions:
REMARK  status: ('A' for Active; 'I' for Inactive)
REMARK    1  A    between atoms: C1_1  and  C7_7 
REMARK    2  A    between atoms: C7_7  and  N1_8 
REMARK    3  A    between atoms: C8_12  and  C1'_13 
REMARK    4  A    between atoms: C5'_17  and  C1''_20 
REMARK    5  A    between atoms: C6'_18  and  O6'_19 
ROOT
ATOM      1  C1  MOL d          45.560   0.779  36.114  0.00  0.00     0.008 A 
ATOM      2  C2  MOL d          45.037   1.963  35.491  0.00  0.00     0.017 A 
ATOM      3  C3  MOL d          44.250   1.922  34.341  0.00  0.00     0.031 A 
ATOM      4  C4  MOL d          43.992   0.695  33.826  0.00  0.00     0.043 A 
ATOM      5  C5  MOL d          44.442  -0.447  34.354  0.00  0.00    -0.006 A 
ATOM      6  C6  MOL d          45.238  -0.467  35.504  0.00  0.00     0.029 A 
ATOM      7  N3  MOL d          43.287   0.391  32.798  0.00  0.00    -0.355 N 
ATOM      8  CN4 MOL d          44.035  -1.508  33.667  0.00  0.00     0.044 A 
ATOM      9  C8  MOL d          43.330  -0.904  32.729  0.00  0.00     0.046 A 
ATOM     10  H8  MOL d          42.793   1.036  32.164  0.00  0.00     0.166 HD
ENDROOT
BRANCH   9  11
ATOM     11  C1' MOL d          42.721  -1.626  31.702  0.00  0.00     0.025 A 
ATOM     12  C2' MOL d          41.497  -2.259  31.891  0.00  0.00     0.016 A 
ATOM     13  C3' MOL d          40.889  -2.979  30.888  0.00  0.00     0.002 A 
ATOM     14  C4' MOL d          41.497  -3.087  29.660  0.00  0.00     0.015 A 
ATOM     15  C5' MOL d          42.742  -2.476  29.387  0.00  0.00     0.008 A 
ATOM     16  C6' MOL d          43.320  -1.752  30.431  0.00  0.00     0.089 A 
BRANCH  15  17
ATOM     17  C1' MOL d          43.352  -2.630  28.120  0.00  0.00    -0.023 A 
ATOM     18  C2' MOL d          43.847  -1.561  27.387  0.00  0.00     0.012 A 
ATOM     19  C3' MOL d          44.412  -1.720  26.140  0.00  0.00     0.001 A 
ATOM     20  C4' MOL d          44.512  -2.965  25.572  0.00  0.00     0.000 A 
ATOM     21  C5' MOL d          44.037  -4.075  26.259  0.00  0.00     0.001 A 
ATOM     22  C6' MOL d          43.468  -3.900  27.518  0.00  0.00     0.012 A 
ENDBRANCH  15  17
BRANCH  16  23
ATOM     23  O6' MOL d          44.524  -1.117  30.204  0.00  0.00    -0.359 OA
ATOM     24  H13 MOL d          44.697  -1.093  29.270  0.00  0.00     0.217 HD
ENDBRANCH  16  23
ENDBRANCH   9  11
BRANCH   1  25
ATOM     25  C7  MOL d          46.339   0.889  37.281  0.00  0.00     0.102 C 
ATOM     26  N2  MOL d          47.574   0.426  37.289  0.00  0.00    -0.385 N 
ATOM     27  H6  MOL d          47.965  -0.013  36.444  0.00  0.00     0.157 HD
ATOM     28  H7  MOL d          48.147   0.503  38.142  0.00  0.00     0.157 HD
BRANCH  25  29
ATOM     29  N1  MOL d          45.845   1.448  38.362  0.00  0.00    -0.385 N 
ATOM     30  H4  MOL d          44.908   1.875  38.339  0.00  0.00     0.157 HD
ATOM     31  H5  MOL d          46.396   1.460  39.233  0.00  0.00     0.157 HD
ENDBRANCH  25  29
ENDBRANCH   1  25
TORSDOF 5
ENDMDL
MODEL 5
REMARK VINA RESULT:      -7.5      1.575      2.048
REMARK  5 active torsions:
REMARK  status: ('A' for Active; 'I' for Inactive)
REMARK    1  A    between atoms: C1_1  and  C7_7 
REMARK    2  A    between atoms: C7_7  and  N1_8 
REMARK    3  A    between atoms: C8_12  and  C1'_13 
REMARK    4  A    between atoms: C5'_17  and  C1''_20 
REMARK    5  A    between atoms: C6'_18  and  O6'_19 
ROOT
ATOM      1  C1  MOL d          43.910  -3.274  27.447  0.00  0.00     0.008 A 
ATOM      2  C2  MOL d          44.117  -4.387  28.332  0.00  0.00     0.017 A 
ATOM      3  C3  MOL d          43.831  -4.327  29.695  0.00  0.00     0.031 A 
ATOM      4  C4  MOL d          43.340  -3.152  30.160  0.00  0.00     0.043 A 
ATOM      5  C5  MOL d          43.119  -2.079  29.395  0.00  0.00    -0.006 A 
ATOM      6  C6  MOL d          43.389  -2.081  28.022  0.00  0.00     0.029 A 
ATOM      7  N3  MOL d          42.984  -2.850  31.355  0.00  0.00    -0.355 N 
ATOM      8  CN4 MOL d          42.620  -1.064  30.091  0.00  0.00     0.044 A 
ATOM      9  C8  MOL d          42.568  -1.624  31.285  0.00  0.00     0.046 A 
ATOM     10  H8  MOL d          43.021  -3.452  32.191  0.00  0.00     0.166 HD
ENDROOT
BRANCH   9  11
ATOM     11  C1' MOL d          42.141  -0.906  32.404  0.00  0.00     0.025 A 
ATOM     12  C2' MOL d          40.789  -0.691  32.651  0.00  0.00     0.016 A 
ATOM     13  C3' MOL d          40.356   0.019  33.747  0.00  0.00     0.002 A 
ATOM     14  C4' MOL d          41.272   0.540  34.629  0.00  0.00     0.015 A 
ATOM     15  C5' MOL d          42.663   0.368  34.449  0.00  0.00     0.008 A 
ATOM     16  C6' MOL d          43.058  -0.362  33.327  0.00  0.00     0.089 A 
BRANCH  15  17
ATOM     17  C1' MOL d          43.579   0.942  35.363  0.00  0.00    -0.023 A 
ATOM     18  C2' MOL d          44.216   0.206  36.351  0.00  0.00     0.012 A 
ATOM     19  C3' MOL d          45.084   0.780  37.255  0.00  0.00     0.001 A 
ATOM     20  C4' MOL d          45.356   2.124  37.204  0.00  0.00     0.000 A 
ATOM     21  C5' MOL d          44.751   2.913  36.234  0.00  0.00     0.001 A 
ATOM     22  C6' MOL d          43.876   2.319  35.328  0.00  0.00     0.012 A 
ENDBRANCH  15  17
BRANCH  16  23
ATOM     23  O6' MOL d          44.405  -0.576  33.122  0.00  0.00    -0.359 OA
ATOM     24  H13 MOL d          44.903   0.113  33.547  0.00  0.00     0.217 HD
ENDBRANCH  16  23
ENDBRANCH   9  11
BRANCH   1  25
ATOM     25  C7  MOL d          44.209  -3.406  26.077  0.00  0.00     0.102 C 
ATOM     26  N2  MOL d          44.425  -4.603  25.567  0.00  0.00    -0.385 N 
ATOM     27  H6  MOL d          44.373  -5.436  26.170  0.00  0.00     0.157 HD
ATOM     28  H7  MOL d          44.646  -4.704  24.566  0.00  0.00     0.157 HD
BRANCH  25  29
ATOM     29  N1  MOL d          44.276  -2.346  25.305  0.00  0.00    -0.385 N 
ATOM     30  H4  MOL d          45.010  -1.640  25.462  0.00  0.00     0.157 HD
ATOM     31  H5  MOL d          43.596  -2.221  24.542  0.00  0.00     0.157 HD
ENDBRANCH  25  29
ENDBRANCH   1  25
TORSDOF 5
ENDMDL
MODEL 6
REMARK VINA RESULT:      -7.1      2.920      8.442
REMARK  5 active torsions:
REMARK  status: ('A' for Active; 'I' for Inactive)
REMARK    1  A    between atoms: C1_1  and  C7_7 
REMARK    2  A    between atoms: C7_7  and  N1_8 
REMARK    3  A    between atoms: C8_12  and  C1'_13 
REMARK    4  A    between atoms: C5'_17  and  C1''_20 
REMARK    5  A    between atoms: C6'_18  and  O6'_19 
ROOT
ATOM      1  C1  MOL d          45.140   1.294  36.388  0.00  0.00     0.008 A 
ATOM      2  C2  MOL d          46.216   0.417  36.019  0.00  0.00     0.017 A 
ATOM      3  C3  MOL d          46.136  -0.459  34.937  0.00  0.00     0.031 A 
ATOM      4  C4  MOL d          44.977  -0.447  34.234  0.00  0.00     0.043 A 
ATOM      5  C5  MOL d          43.937   0.343  34.518  0.00  0.00    -0.006 A 
ATOM      6  C6  MOL d          43.961   1.239  35.592  0.00  0.00     0.029 A 
ATOM      7  N3  MOL d          44.663  -1.136  33.197  0.00  0.00    -0.355 N 
ATOM      8  CN4 MOL d          42.933   0.171  33.667  0.00  0.00     0.044 A 
ATOM      9  C8  MOL d          43.463  -0.754  32.888  0.00  0.00     0.046 A 
ATOM     10  H8  MOL d          45.240  -1.840  32.715  0.00  0.00     0.166 HD
ENDROOT
BRANCH   9  11
ATOM     11  C1' MOL d          42.739  -1.315  31.834  0.00  0.00     0.025 A 
ATOM     12  C2' MOL d          41.397  -1.651  31.978  0.00  0.00     0.016 A 
ATOM     13  C3' MOL d          40.675  -2.210  30.949  0.00  0.00     0.002 A 
ATOM     14  C4' MOL d          41.283  -2.452  29.740  0.00  0.00     0.015 A 
ATOM     15  C5' MOL d          42.643  -2.142  29.514  0.00  0.00     0.008 A 
ATOM     16  C6' MOL d          43.337  -1.572  30.583  0.00  0.00     0.089 A 
BRANCH  15  17
ATOM     17  C1' MOL d          43.244  -2.430  28.265  0.00  0.00    -0.023 A 
ATOM     18  C2' MOL d          43.342  -3.717  27.756  0.00  0.00     0.012 A 
ATOM     19  C3' MOL d          43.956  -3.989  26.553  0.00  0.00     0.001 A 
ATOM     20  C4' MOL d          44.498  -2.977  25.800  0.00  0.00     0.000 A 
ATOM     21  C5' MOL d          44.427  -1.667  26.256  0.00  0.00     0.001 A 
ATOM     22  C6' MOL d          43.804  -1.406  27.474  0.00  0.00     0.012 A 
ENDBRANCH  15  17
BRANCH  16  23
ATOM     23  O6' MOL d          44.660  -1.230  30.401  0.00  0.00    -0.359 OA
ATOM     24  H13 MOL d          45.168  -2.014  30.228  0.00  0.00     0.217 HD
ENDBRANCH  16  23
ENDBRANCH   9  11
BRANCH   1  25
ATOM     25  C7  MOL d          45.292   2.162  37.486  0.00  0.00     0.102 C 
ATOM     26  N2  MOL d          45.894   1.736  38.579  0.00  0.00    -0.385 N 
ATOM     27  H6  MOL d          46.253   0.772  38.626  0.00  0.00     0.157 HD
ATOM     28  H7  MOL d          46.006   2.367  39.385  0.00  0.00     0.157 HD
BRANCH  25  29
ATOM     29  N1  MOL d          44.836   3.392  37.431  0.00  0.00    -0.385 N 
ATOM     30  H4  MOL d          44.566   3.801  36.525  0.00  0.00     0.157 HD
ATOM     31  H5  MOL d          44.749   3.948  38.294  0.00  0.00     0.157 HD
ENDBRANCH  25  29
ENDBRANCH   1  25
TORSDOF 5
ENDMDL
MODEL 7
REMARK VINA RESULT:      -7.0      4.265      8.459
REMARK  5 active torsions:
REMARK  status: ('A' for Active; 'I' for Inactive)
REMARK    1  A    between atoms: C1_1  and  C7_7 
REMARK    2  A    between atoms: C7_7  and  N1_8 
REMARK    3  A    between atoms: C8_12  and  C1'_13 
REMARK    4  A    between atoms: C5'_17  and  C1''_20 
REMARK    5  A    between atoms: C6'_18  and  O6'_19 
ROOT
ATOM      1  C1  MOL d          38.414   1.877  34.462  0.00  0.00     0.008 A 
ATOM      2  C2  MOL d          37.631   1.687  33.273  0.00  0.00     0.017 A 
ATOM      3  C3  MOL d          37.987   0.782  32.274  0.00  0.00     0.031 A 
ATOM      4  C4  MOL d          39.126   0.074  32.476  0.00  0.00     0.043 A 
ATOM      5  C5  MOL d          39.900   0.196  33.558  0.00  0.00    -0.006 A 
ATOM      6  C6  MOL d          39.594   1.089  34.590  0.00  0.00     0.029 A 
ATOM      7  N3  MOL d          39.653  -0.823  31.725  0.00  0.00    -0.355 N 
ATOM      8  CN4 MOL d          40.946  -0.622  33.517  0.00  0.00     0.044 A 
ATOM      9  C8  MOL d          40.716  -1.211  32.359  0.00  0.00     0.046 A 
ATOM     10  H8  MOL d          39.307  -1.161  30.816  0.00  0.00     0.166 HD
ENDROOT
BRANCH   9  11
ATOM     11  C1' MOL d          41.604  -2.154  31.838  0.00  0.00     0.025 A 
ATOM     12  C2' MOL d          42.007  -3.257  32.584  0.00  0.00     0.016 A 
ATOM     13  C3' MOL d          42.885  -4.190  32.083  0.00  0.00     0.002 A 
ATOM     14  C4' MOL d          43.391  -4.040  30.814  0.00  0.00     0.015 A 
ATOM     15  C5' MOL d          43.034  -2.947  29.992  0.00  0.00     0.008 A 
ATOM     16  C6' MOL d          42.136  -2.028  30.537  0.00  0.00     0.089 A 
BRANCH  15  17
ATOM     17  C1' MOL d          43.594  -2.810  28.700  0.00  0.00    -0.023 A 
ATOM     18  C2' MOL d          44.286  -1.677  28.296  0.00  0.00     0.012 A 
ATOM     19  C3' MOL d          44.802  -1.542  27.025  0.00  0.00     0.001 A 
ATOM     20  C4' MOL d          44.651  -2.544  26.100  0.00  0.00     0.000 A 
ATOM     21  C5' MOL d          43.970  -3.705  26.447  0.00  0.00     0.001 A 
ATOM     22  C6' MOL d          43.454  -3.827  27.734  0.00  0.00     0.012 A 
ENDBRANCH  15  17
BRANCH  16  23
ATOM     23  O6' MOL d          41.740  -0.957  29.764  0.00  0.00    -0.359 OA
ATOM     24  H13 MOL d          40.820  -1.051  29.542  0.00  0.00     0.217 HD
ENDBRANCH  16  23
ENDBRANCH   9  11
BRANCH   1  25
ATOM     25  C7  MOL d          37.991   2.799  35.438  0.00  0.00     0.102 C 
ATOM     26  N2  MOL d          36.720   2.847  35.785  0.00  0.00    -0.385 N 
ATOM     27  H6  MOL d          36.042   2.210  35.345  0.00  0.00     0.157 HD
ATOM     28  H7  MOL d          36.406   3.522  36.497  0.00  0.00     0.157 HD
BRANCH  25  29
ATOM     29  N1  MOL d          38.853   3.614  36.003  0.00  0.00    -0.385 N 
ATOM     30  H4  MOL d          38.739   3.879  36.992  0.00  0.00     0.157 HD
ATOM     31  H5  MOL d          39.641   3.989  35.456  0.00  0.00     0.157 HD
ENDBRANCH  25  29
ENDBRANCH   1  25
TORSDOF 5
ENDMDL
MODEL 8
REMARK VINA RESULT:      -6.8      3.602      4.705
REMARK  5 active torsions:
REMARK  status: ('A' for Active; 'I' for Inactive)
REMARK    1  A    between atoms: C1_1  and  C7_7 
REMARK    2  A    between atoms: C7_7  and  N1_8 
REMARK    3  A    between atoms: C8_12  and  C1'_13 
REMARK    4  A    between atoms: C5'_17  and  C1''_20 
REMARK    5  A    between atoms: C6'_18  and  O6'_19 
ROOT
ATOM      1  C1  MOL d          43.656  -3.383  27.300  0.00  0.00     0.008 A 
ATOM      2  C2  MOL d          43.161  -4.545  27.984  0.00  0.00     0.017 A 
ATOM      3  C3  MOL d          42.607  -4.486  29.262  0.00  0.00     0.031 A 
ATOM      4  C4  MOL d          42.554  -3.262  29.843  0.00  0.00     0.043 A 
ATOM      5  C5  MOL d          42.991  -2.140  29.265  0.00  0.00    -0.006 A 
ATOM      6  C6  MOL d          43.558  -2.140  27.986  0.00  0.00     0.029 A 
ATOM      7  N3  MOL d          42.080  -2.942  30.992  0.00  0.00    -0.355 N 
ATOM      8  CN4 MOL d          42.809  -1.076  30.039  0.00  0.00     0.044 A 
ATOM      9  C8  MOL d          42.243  -1.658  31.079  0.00  0.00     0.046 A 
ATOM     10  H8  MOL d          41.660  -3.569  31.694  0.00  0.00     0.166 HD
ENDROOT
BRANCH   9  11
ATOM     11  C1' MOL d          41.898  -0.929  32.219  0.00  0.00     0.025 A 
ATOM     12  C2' MOL d          42.868  -0.482  33.110  0.00  0.00     0.016 A 
ATOM     13  C3' MOL d          42.540   0.233  34.239  0.00  0.00     0.002 A 
ATOM     14  C4' MOL d          41.223   0.518  34.510  0.00  0.00     0.015 A 
ATOM     15  C5' MOL d          40.178   0.099  33.656  0.00  0.00     0.008 A 
ATOM     16  C6' MOL d          40.555  -0.619  32.520  0.00  0.00     0.089 A 
BRANCH  15  17
ATOM     17  C1' MOL d          38.831   0.387  33.979  0.00  0.00    -0.023 A 
ATOM     18  C2' MOL d          38.195   1.554  33.579  0.00  0.00     0.012 A 
ATOM     19  C3' MOL d          36.891   1.838  33.925  0.00  0.00     0.001 A 
ATOM     20  C4' MOL d          36.163   0.958  34.686  0.00  0.00     0.000 A 
ATOM     21  C5' MOL d          36.745  -0.229  35.112  0.00  0.00     0.001 A 
ATOM     22  C6' MOL d          38.063  -0.502  34.757  0.00  0.00     0.012 A 
ENDBRANCH  15  17
BRANCH  16  23
ATOM     23  O6' MOL d          39.572  -1.029  31.643  0.00  0.00    -0.359 OA
ATOM     24  H13 MOL d          38.767  -0.560  31.831  0.00  0.00     0.217 HD
ENDBRANCH  16  23
ENDBRANCH   9  11
BRANCH   1  25
ATOM     25  C7  MOL d          44.192  -3.511  26.004  0.00  0.00     0.102 C 
ATOM     26  N2  MOL d          44.428  -4.710  25.510  0.00  0.00    -0.385 N 
ATOM     27  H6  MOL d          44.218  -5.549  26.070  0.00  0.00     0.157 HD
ATOM     28  H7  MOL d          44.823  -4.809  24.563  0.00  0.00     0.157 HD
BRANCH  25  29
ATOM     29  N1  MOL d          44.462  -2.445  25.286  0.00  0.00    -0.385 N 
ATOM     30  H4  MOL d          45.257  -2.453  24.631  0.00  0.00     0.157 HD
ATOM     31  H5  MOL d          43.879  -1.601  25.379  0.00  0.00     0.157 HD
ENDBRANCH  25  29
ENDBRANCH   1  25
TORSDOF 5
ENDMDL
MODEL 9
REMARK VINA RESULT:      -6.7      2.688      4.279
REMARK  5 active torsions:
REMARK  status: ('A' for Active; 'I' for Inactive)
REMARK    1  A    between atoms: C1_1  and  C7_7 
REMARK    2  A    between atoms: C7_7  and  N1_8 
REMARK    3  A    between atoms: C8_12  and  C1'_13 
REMARK    4  A    between atoms: C5'_17  and  C1''_20 
REMARK    5  A    between atoms: C6'_18  and  O6'_19 
ROOT
ATOM      1  C1  MOL d          42.077  -3.182  30.447  0.00  0.00     0.008 A 
ATOM      2  C2  MOL d          41.669  -1.871  30.025  0.00  0.00     0.017 A 
ATOM      3  C3  MOL d          42.036  -0.713  30.709  0.00  0.00     0.031 A 
ATOM      4  C4  MOL d          42.810  -0.878  31.809  0.00  0.00     0.043 A 
ATOM      5  C5  MOL d          43.229  -2.066  32.257  0.00  0.00    -0.006 A 
ATOM      6  C6  MOL d          42.890  -3.260  31.613  0.00  0.00     0.029 A 
ATOM      7  N3  MOL d          43.291   0.018  32.591  0.00  0.00    -0.355 N 
ATOM      8  CN4 MOL d          43.987  -1.951  33.341  0.00  0.00     0.044 A 
ATOM      9  C8  MOL d          43.974  -0.638  33.478  0.00  0.00     0.046 A 
ATOM     10  H8  MOL d          43.163   1.038  32.529  0.00  0.00     0.166 HD
ENDROOT
BRANCH   9  11
ATOM     11  C1' MOL d          44.617  -0.014  34.549  0.00  0.00     0.025 A 
ATOM     12  C2' MOL d          45.883  -0.413  34.962  0.00  0.00     0.016 A 
ATOM     13  C3' MOL d          46.524   0.190  36.020  0.00  0.00     0.002 A 
ATOM     14  C4' MOL d          45.908   1.213  36.700  0.00  0.00     0.015 A 
ATOM     15  C5' MOL d          44.621   1.676  36.344  0.00  0.00     0.008 A 
ATOM     16  C6' MOL d          44.009   1.040  35.263  0.00  0.00     0.089 A 
BRANCH  15  17
ATOM     17  C1' MOL d          44.005   2.714  37.083  0.00  0.00    -0.023 A 
ATOM     18  C2' MOL d          44.133   4.054  36.748  0.00  0.00     0.012 A 
ATOM     19  C3' MOL d          43.553   5.059  37.492  0.00  0.00     0.001 A 
ATOM     20  C4' MOL d          42.810   4.762  38.607  0.00  0.00     0.000 A 
ATOM     21  C5' MOL d          42.643   3.437  38.991  0.00  0.00     0.001 A 
ATOM     22  C6' MOL d          43.235   2.432  38.230  0.00  0.00     0.012 A 
ENDBRANCH  15  17
BRANCH  16  23
ATOM     23  O6' MOL d          42.762   1.473  34.864  0.00  0.00    -0.359 OA
ATOM     24  H13 MOL d          42.236   1.670  35.630  0.00  0.00     0.217 HD
ENDBRANCH  16  23
ENDBRANCH   9  11
BRANCH   1  25
ATOM     25  C7  MOL d          41.681  -4.310  29.704  0.00  0.00     0.102 C 
ATOM     26  N2  MOL d          42.428  -4.728  28.701  0.00  0.00    -0.385 N 
ATOM     27  H6  MOL d          43.298  -4.231  28.465  0.00  0.00     0.157 HD
ATOM     28  H7  MOL d          42.141  -5.552  28.153  0.00  0.00     0.157 HD
BRANCH  25  29
ATOM     29  N1  MOL d          40.571  -4.948  30.000  0.00  0.00    -0.385 N 
ATOM     30  H4  MOL d          39.926  -5.234  29.250  0.00  0.00     0.157 HD
ATOM     31  H5  MOL d          40.347  -5.161  30.982  0.00  0.00     0.157 HD
ENDBRANCH  25  29
ENDBRANCH   1  25
TORSDOF 5
ENDMDL
MODEL 10
REMARK VINA RESULT:      -6.6      2.378      4.661
REMARK  5 active torsions:
REMARK  status: ('A' for Active; 'I' for Inactive)
REMARK    1  A    between atoms: C1_1  and  C7_7 
REMARK    2  A    between atoms: C7_7  and  N1_8 
REMARK    3  A    between atoms: C8_12  and  C1'_13 
REMARK    4  A    between atoms: C5'_17  and  C1''_20 
REMARK    5  A    between atoms: C6'_18  and  O6'_19 
ROOT
ATOM      1  C1  MOL d          42.766  -3.039  30.776  0.00  0.00     0.008 A 
ATOM      2  C2  MOL d          42.332  -3.885  31.853  0.00  0.00     0.017 A 
ATOM      3  C3  MOL d          42.636  -3.619  33.187  0.00  0.00     0.031 A 
ATOM      4  C4  MOL d          43.373  -2.508  33.431  0.00  0.00     0.043 A 
ATOM      5  C5  MOL d          43.807  -1.675  32.480  0.00  0.00    -0.006 A 
ATOM      6  C6  MOL d          43.535  -1.893  31.126  0.00  0.00     0.029 A 
ATOM      7  N3  MOL d          43.765  -2.039  34.559  0.00  0.00    -0.355 N 
ATOM      8  CN4 MOL d          44.493  -0.656  32.985  0.00  0.00     0.044 A 
ATOM      9  C8  MOL d          44.417  -0.957  34.268  0.00  0.00     0.046 A 
ATOM     10  H8  MOL d          43.597  -2.437  35.495  0.00  0.00     0.166 HD
ENDROOT
BRANCH   9  11
ATOM     11  C1' MOL d          45.055  -0.175  35.234  0.00  0.00     0.025 A 
ATOM     12  C2' MOL d          46.362  -0.440  35.628  0.00  0.00     0.016 A 
ATOM     13  C3' MOL d          46.999   0.319  36.583  0.00  0.00     0.002 A 
ATOM     14  C4' MOL d          46.337   1.368  37.175  0.00  0.00     0.015 A 
ATOM     15  C5' MOL d          45.008   1.701  36.832  0.00  0.00     0.008 A 
ATOM     16  C6' MOL d          44.401   0.909  35.856  0.00  0.00     0.089 A 
BRANCH  15  17
ATOM     17  C1' MOL d          44.348   2.772  37.481  0.00  0.00    -0.023 A 
ATOM     18  C2' MOL d          44.197   4.024  36.903  0.00  0.00     0.012 A 
ATOM     19  C3' MOL d          43.579   5.069  37.556  0.00  0.00     0.001 A 
ATOM     20  C4' MOL d          43.078   4.901  38.823  0.00  0.00     0.000 A 
ATOM     21  C5' MOL d          43.195   3.668  39.452  0.00  0.00     0.001 A 
ATOM     22  C6' MOL d          43.823   2.622  38.780  0.00  0.00     0.012 A 
ENDBRANCH  15  17
BRANCH  16  23
ATOM     23  O6' MOL d          43.112   1.210  35.470  0.00  0.00    -0.359 OA
ATOM     24  H13 MOL d          43.130   1.658  34.632  0.00  0.00     0.217 HD
ENDBRANCH  16  23
ENDBRANCH   9  11
BRANCH   1  25
ATOM     25  C7  MOL d          42.414  -3.359  29.451  0.00  0.00     0.102 C 
ATOM     26  N2  MOL d          41.488  -4.270  29.222  0.00  0.00    -0.385 N 
ATOM     27  H6  MOL d          41.025  -4.743  30.011  0.00  0.00     0.157 HD
ATOM     28  H7  MOL d          41.229  -4.509  28.254  0.00  0.00     0.157 HD
BRANCH  25  29
ATOM     29  N1  MOL d          43.001  -2.759  28.441  0.00  0.00    -0.385 N 
ATOM     30  H4  MOL d          43.810  -3.200  27.980  0.00  0.00     0.157 HD
ATOM     31  H5  MOL d          42.654  -1.847  28.111  0.00  0.00     0.157 HD
ENDBRANCH  25  29
ENDBRANCH   1  25
TORSDOF 5
ENDMDL
