MODEL 1
REMARK VINA RESULT:      -6.6      0.000      0.000
REMARK  2 active torsions:
REMARK  status: ('A' for Active; 'I' for Inactive)
REMARK    1  A    between atoms: C0_1  and  C1_2 
REMARK    2  A    between atoms: C0_1  and  N1_3 
ROOT
ATOM      1  C1  ESI d           8.540   0.703  25.341  0.00  0.00     0.049 A 
ATOM      2  S2  ESI d           9.241   1.253  23.821  0.00  0.00    -0.086 SA
ATOM      3  C3  ESI d           9.087   2.935  24.194  0.00  0.00     0.017 A 
ATOM      4  C4  ESI d           8.511   3.034  25.452  0.00  0.00    -0.001 A 
ATOM      5  C5  ESI d           8.219   1.840  26.054  0.00  0.00     0.036 A 
ATOM      6  C6  ESI d           9.428   4.045  23.457  0.00  0.00     0.020 A 
ATOM      7  C7  ESI d           9.191   5.296  24.001  0.00  0.00     0.003 A 
ATOM      8  C8  ESI d           8.624   5.412  25.258  0.00  0.00     0.019 A 
ATOM      9  C9  ESI d           8.281   4.297  26.001  0.00  0.00     0.018 A 
ATOM     10  I9  ESI d           7.511   4.672  27.841  0.00  0.00    -0.044 I 
ENDROOT
BRANCH   1  11
ATOM     11  C0  ESI d           8.406  -0.630  25.668  0.00  0.00     0.109 C 
ATOM     12  N2  ESI d           8.055  -0.877  26.897  0.00  0.00    -0.385 N 
ATOM     13  H3  ESI d           7.896  -0.100  27.553  0.00  0.00     0.157 HD
ATOM     14  H4  ESI d           7.937  -1.850  27.213  0.00  0.00     0.157 HD
BRANCH  11  15
ATOM     15  N1  ESI d           8.632  -1.531  24.758  0.00  0.00    -0.385 N 
ATOM     16  H1  ESI d           8.338  -2.506  24.914  0.00  0.00     0.157 HD
ATOM     17  H2  ESI d           9.103  -1.270  23.881  0.00  0.00     0.157 HD
ENDBRANCH  11  15
ENDBRANCH   1  11
TORSDOF 2
ENDMDL
MODEL 2
REMARK VINA RESULT:      -5.4      2.471      3.489
REMARK  2 active torsions:
REMARK  status: ('A' for Active; 'I' for Inactive)
REMARK    1  A    between atoms: C0_1  and  C1_2 
REMARK    2  A    between atoms: C0_1  and  N1_3 
ROOT
ATOM      1  C1  ESI d           8.904   2.784  24.495  0.00  0.00     0.049 A 
ATOM      2  S2  ESI d           8.607   2.111  26.096  0.00  0.00    -0.086 SA
ATOM      3  C3  ESI d           8.164   3.625  26.805  0.00  0.00     0.017 A 
ATOM      4  C4  ESI d           8.253   4.594  25.816  0.00  0.00    -0.001 A 
ATOM      5  C5  ESI d           8.651   4.137  24.590  0.00  0.00     0.036 A 
ATOM      6  C6  ESI d           7.787   3.927  28.093  0.00  0.00     0.020 A 
ATOM      7  C7  ESI d           7.483   5.244  28.399  0.00  0.00     0.003 A 
ATOM      8  C8  ESI d           7.560   6.221  27.422  0.00  0.00     0.019 A 
ATOM      9  C9  ESI d           7.937   5.917  26.127  0.00  0.00     0.018 A 
ATOM     10  I9  ESI d           7.939   7.477  24.826  0.00  0.00    -0.044 I 
ENDROOT
BRANCH   1  11
ATOM     11  C0  ESI d           9.287   2.015  23.415  0.00  0.00     0.109 C 
ATOM     12  N2  ESI d           9.744   2.671  22.389  0.00  0.00    -0.385 N 
ATOM     13  H3  ESI d           9.802   3.699  22.419  0.00  0.00     0.157 HD
ATOM     14  H4  ESI d          10.048   2.163  21.546  0.00  0.00     0.157 HD
BRANCH  11  15
ATOM     15  N1  ESI d           9.170   0.721  23.486  0.00  0.00    -0.385 N 
ATOM     16  H1  ESI d           8.703   0.204  22.728  0.00  0.00     0.157 HD
ATOM     17  H2  ESI d           9.546   0.214  24.300  0.00  0.00     0.157 HD
ENDBRANCH  11  15
ENDBRANCH   1  11
TORSDOF 2
ENDMDL
MODEL 3
REMARK VINA RESULT:      -5.2      2.395      3.114
REMARK  2 active torsions:
REMARK  status: ('A' for Active; 'I' for Inactive)
REMARK    1  A    between atoms: C0_1  and  C1_2 
REMARK    2  A    between atoms: C0_1  and  N1_3 
ROOT
ATOM      1  C1  ESI d           8.516   3.274  24.814  0.00  0.00     0.049 A 
ATOM      2  S2  ESI d           9.919   3.997  24.029  0.00  0.00    -0.086 SA
ATOM      3  C3  ESI d           9.103   5.461  23.603  0.00  0.00     0.017 A 
ATOM      4  C4  ESI d           7.798   5.363  24.062  0.00  0.00    -0.001 A 
ATOM      5  C5  ESI d           7.493   4.194  24.703  0.00  0.00     0.036 A 
ATOM      6  C6  ESI d           9.560   6.570  22.929  0.00  0.00     0.020 A 
ATOM      7  C7  ESI d           8.682   7.620  22.716  0.00  0.00     0.003 A 
ATOM      8  C8  ESI d           7.379   7.542  23.175  0.00  0.00     0.019 A 
ATOM      9  C9  ESI d           6.919   6.427  23.853  0.00  0.00     0.018 A 
ATOM     10  I9  ESI d           4.994   6.523  24.492  0.00  0.00    -0.044 I 
ENDROOT
BRANCH   1  11
ATOM     11  C0  ESI d           8.548   2.033  25.415  0.00  0.00     0.109 C 
ATOM     12  N2  ESI d           9.190   1.107  24.764  0.00  0.00    -0.385 N 
ATOM     13  H3  ESI d           9.635   1.327  23.862  0.00  0.00     0.157 HD
ATOM     14  H4  ESI d           9.254   0.155  25.152  0.00  0.00     0.157 HD
BRANCH  11  15
ATOM     15  N1  ESI d           7.951   1.868  26.559  0.00  0.00    -0.385 N 
ATOM     16  H1  ESI d           7.309   1.074  26.695  0.00  0.00     0.157 HD
ATOM     17  H2  ESI d           8.120   2.531  27.328  0.00  0.00     0.157 HD
ENDBRANCH  11  15
ENDBRANCH   1  11
TORSDOF 2
ENDMDL
MODEL 4
REMARK VINA RESULT:      -5.1      4.479      5.713
REMARK  2 active torsions:
REMARK  status: ('A' for Active; 'I' for Inactive)
REMARK    1  A    between atoms: C0_1  and  C1_2 
REMARK    2  A    between atoms: C0_1  and  N1_3 
ROOT
ATOM      1  C1  ESI d           8.634   6.235  23.616  0.00  0.00     0.049 A 
ATOM      2  S2  ESI d           8.062   6.720  25.211  0.00  0.00    -0.086 SA
ATOM      3  C3  ESI d           8.125   5.124  25.875  0.00  0.00     0.017 A 
ATOM      4  C4  ESI d           8.573   4.272  24.876  0.00  0.00    -0.001 A 
ATOM      5  C5  ESI d           8.838   4.871  23.676  0.00  0.00     0.036 A 
ATOM      6  C6  ESI d           7.806   4.672  27.134  0.00  0.00     0.020 A 
ATOM      7  C7  ESI d           7.948   3.320  27.405  0.00  0.00     0.003 A 
ATOM      8  C8  ESI d           8.402   2.458  26.422  0.00  0.00     0.019 A 
ATOM      9  C9  ESI d           8.723   2.912  25.156  0.00  0.00     0.018 A 
ATOM     10  I9  ESI d           9.420   1.504  23.870  0.00  0.00    -0.044 I 
ENDROOT
BRANCH   1  11
ATOM     11  C0  ESI d           8.829   7.128  22.584  0.00  0.00     0.109 C 
ATOM     12  N2  ESI d           7.845   7.237  21.739  0.00  0.00    -0.385 N 
ATOM     13  H3  ESI d           6.991   6.677  21.868  0.00  0.00     0.157 HD
ATOM     14  H4  ESI d           7.921   7.885  20.941  0.00  0.00     0.157 HD
BRANCH  11  15
ATOM     15  N1  ESI d           9.950   7.785  22.518  0.00  0.00    -0.385 N 
ATOM     16  H1  ESI d          10.781   7.436  23.017  0.00  0.00     0.157 HD
ATOM     17  H2  ESI d          10.006   8.653  21.968  0.00  0.00     0.157 HD
ENDBRANCH  11  15
ENDBRANCH   1  11
TORSDOF 2
ENDMDL
MODEL 5
REMARK VINA RESULT:      -5.1      2.336      3.155
REMARK  2 active torsions:
REMARK  status: ('A' for Active; 'I' for Inactive)
REMARK    1  A    between atoms: C0_1  and  C1_2 
REMARK    2  A    between atoms: C0_1  and  N1_3 
ROOT
ATOM      1  C1  ESI d           8.868   2.368  24.783  0.00  0.00     0.049 A 
ATOM      2  S2  ESI d           8.439   2.533  26.484  0.00  0.00    -0.086 SA
ATOM      3  C3  ESI d           8.049   4.214  26.370  0.00  0.00     0.017 A 
ATOM      4  C4  ESI d           8.254   4.603  25.055  0.00  0.00    -0.001 A 
ATOM      5  C5  ESI d           8.693   3.615  24.217  0.00  0.00     0.036 A 
ATOM      6  C6  ESI d           7.618   5.094  27.335  0.00  0.00     0.020 A 
ATOM      7  C7  ESI d           7.377   6.408  26.968  0.00  0.00     0.003 A 
ATOM      8  C8  ESI d           7.569   6.811  25.658  0.00  0.00     0.019 A 
ATOM      9  C9  ESI d           8.002   5.926  24.687  0.00  0.00     0.018 A 
ATOM     10  I9  ESI d           8.173   6.694  22.815  0.00  0.00    -0.044 I 
ENDROOT
BRANCH   1  11
ATOM     11  C0  ESI d           9.265   1.174  24.220  0.00  0.00     0.109 C 
ATOM     12  N2  ESI d          10.405   1.197  23.593  0.00  0.00    -0.385 N 
ATOM     13  H3  ESI d          10.948   2.071  23.544  0.00  0.00     0.157 HD
ATOM     14  H4  ESI d          10.765   0.341  23.146  0.00  0.00     0.157 HD
BRANCH  11  15
ATOM     15  N1  ESI d           8.499   0.130  24.344  0.00  0.00    -0.385 N 
ATOM     16  H1  ESI d           8.805  -0.669  24.919  0.00  0.00     0.157 HD
ATOM     17  H2  ESI d           7.586   0.101  23.868  0.00  0.00     0.157 HD
ENDBRANCH  11  15
ENDBRANCH   1  11
TORSDOF 2
ENDMDL
MODEL 6
REMARK VINA RESULT:      -5.0      3.871      5.369
REMARK  2 active torsions:
REMARK  status: ('A' for Active; 'I' for Inactive)
REMARK    1  A    between atoms: C0_1  and  C1_2 
REMARK    2  A    between atoms: C0_1  and  N1_3 
ROOT
ATOM      1  C1  ESI d           9.399   3.124  23.843  0.00  0.00     0.049 A 
ATOM      2  S2  ESI d           9.026   3.028  25.563  0.00  0.00    -0.086 SA
ATOM      3  C3  ESI d           8.658   1.339  25.534  0.00  0.00     0.017 A 
ATOM      4  C4  ESI d           8.825   0.895  24.230  0.00  0.00    -0.001 A 
ATOM      5  C5  ESI d           9.216   1.853  23.335  0.00  0.00     0.036 A 
ATOM      6  C6  ESI d           8.258   0.499  26.547  0.00  0.00     0.020 A 
ATOM      7  C7  ESI d           8.024  -0.833  26.245  0.00  0.00     0.003 A 
ATOM      8  C8  ESI d           8.193  -1.293  24.951  0.00  0.00     0.019 A 
ATOM      9  C9  ESI d           8.596  -0.449  23.932  0.00  0.00     0.018 A 
ATOM     10  I9  ESI d           8.840  -1.322  22.115  0.00  0.00    -0.044 I 
ENDROOT
BRANCH   1  11
ATOM     11  C0  ESI d           9.810   4.287  23.226  0.00  0.00     0.109 C 
ATOM     12  N2  ESI d          11.038   4.646  23.460  0.00  0.00    -0.385 N 
ATOM     13  H3  ESI d          11.636   4.071  24.071  0.00  0.00     0.157 HD
ATOM     14  H4  ESI d          11.414   5.505  23.034  0.00  0.00     0.157 HD
BRANCH  11  15
ATOM     15  N1  ESI d           8.970   4.935  22.474  0.00  0.00    -0.385 N 
ATOM     16  H1  ESI d           9.297   5.388  21.608  0.00  0.00     0.157 HD
ATOM     17  H2  ESI d           7.978   4.996  22.743  0.00  0.00     0.157 HD
ENDBRANCH  11  15
ENDBRANCH   1  11
TORSDOF 2
ENDMDL
MODEL 7
REMARK VINA RESULT:      -4.9      3.607      4.850
REMARK  2 active torsions:
REMARK  status: ('A' for Active; 'I' for Inactive)
REMARK    1  A    between atoms: C0_1  and  C1_2 
REMARK    2  A    between atoms: C0_1  and  N1_3 
ROOT
ATOM      1  C1  ESI d          10.042   4.987  23.773  0.00  0.00     0.049 A 
ATOM      2  S2  ESI d          10.216   3.417  22.992  0.00  0.00    -0.086 SA
ATOM      3  C3  ESI d           9.446   2.538  24.267  0.00  0.00     0.017 A 
ATOM      4  C4  ESI d           9.081   3.452  25.245  0.00  0.00    -0.001 A 
ATOM      5  C5  ESI d           9.405   4.753  24.975  0.00  0.00     0.036 A 
ATOM      6  C6  ESI d           9.198   1.191  24.396  0.00  0.00     0.020 A 
ATOM      7  C7  ESI d           8.556   0.746  25.540  0.00  0.00     0.003 A 
ATOM      8  C8  ESI d           8.178   1.645  26.521  0.00  0.00     0.019 A 
ATOM      9  C9  ESI d           8.427   3.000  26.392  0.00  0.00     0.018 A 
ATOM     10  I9  ESI d           7.750   4.163  27.912  0.00  0.00    -0.044 I 
ENDROOT
BRANCH   1  11
ATOM     11  C0  ESI d          10.471   6.164  23.197  0.00  0.00     0.109 C 
ATOM     12  N2  ESI d          11.757   6.365  23.214  0.00  0.00    -0.385 N 
ATOM     13  H3  ESI d          12.382   5.664  23.637  0.00  0.00     0.157 HD
ATOM     14  H4  ESI d          12.150   7.224  22.803  0.00  0.00     0.157 HD
BRANCH  11  15
ATOM     15  N1  ESI d           9.592   6.979  22.691  0.00  0.00    -0.385 N 
ATOM     16  H1  ESI d           9.489   7.929  23.075  0.00  0.00     0.157 HD
ATOM     17  H2  ESI d           9.001   6.673  21.905  0.00  0.00     0.157 HD
ENDBRANCH  11  15
ENDBRANCH   1  11
TORSDOF 2
ENDMDL
MODEL 8
REMARK VINA RESULT:      -4.9      2.954      3.897
REMARK  2 active torsions:
REMARK  status: ('A' for Active; 'I' for Inactive)
REMARK    1  A    between atoms: C0_1  and  C1_2 
REMARK    2  A    between atoms: C0_1  and  N1_3 
ROOT
ATOM      1  C1  ESI d           9.515   3.465  24.127  0.00  0.00     0.049 A 
ATOM      2  S2  ESI d           8.228   3.483  25.331  0.00  0.00    -0.086 SA
ATOM      3  C3  ESI d           8.302   5.191  25.591  0.00  0.00     0.017 A 
ATOM      4  C4  ESI d           9.295   5.699  24.766  0.00  0.00    -0.001 A 
ATOM      5  C5  ESI d           9.938   4.772  23.992  0.00  0.00     0.036 A 
ATOM      6  C6  ESI d           7.572   5.995  26.437  0.00  0.00     0.020 A 
ATOM      7  C7  ESI d           7.841   7.354  26.450  0.00  0.00     0.003 A 
ATOM      8  C8  ESI d           8.822   7.877  25.626  0.00  0.00     0.019 A 
ATOM      9  C9  ESI d           9.556   7.070  24.776  0.00  0.00     0.018 A 
ATOM     10  I9  ESI d          10.912   8.031  23.609  0.00  0.00    -0.044 I 
ENDROOT
BRANCH   1  11
ATOM     11  C0  ESI d           9.927   2.316  23.485  0.00  0.00     0.109 C 
ATOM     12  N2  ESI d          11.056   2.403  22.843  0.00  0.00    -0.385 N 
ATOM     13  H3  ESI d          11.580   3.290  22.840  0.00  0.00     0.157 HD
ATOM     14  H4  ESI d          11.426   1.585  22.339  0.00  0.00     0.157 HD
BRANCH  11  15
ATOM     15  N1  ESI d           9.186   1.250  23.555  0.00  0.00    -0.385 N 
ATOM     16  H1  ESI d           8.657   0.935  22.730  0.00  0.00     0.157 HD
ATOM     17  H2  ESI d           9.127   0.721  24.437  0.00  0.00     0.157 HD
ENDBRANCH  11  15
ENDBRANCH   1  11
TORSDOF 2
ENDMDL
MODEL 9
REMARK VINA RESULT:      -4.8      4.490      5.484
REMARK  2 active torsions:
REMARK  status: ('A' for Active; 'I' for Inactive)
REMARK    1  A    between atoms: C0_1  and  C1_2 
REMARK    2  A    between atoms: C0_1  and  N1_3 
ROOT
ATOM      1  C1  ESI d           5.970   6.259  24.066  0.00  0.00     0.049 A 
ATOM      2  S2  ESI d           6.959   7.639  23.591  0.00  0.00    -0.086 SA
ATOM      3  C3  ESI d           8.456   6.778  23.684  0.00  0.00     0.017 A 
ATOM      4  C4  ESI d           8.169   5.478  24.071  0.00  0.00    -0.001 A 
ATOM      5  C5  ESI d           6.843   5.211  24.276  0.00  0.00     0.036 A 
ATOM      6  C6  ESI d           9.743   7.205  23.450  0.00  0.00     0.020 A 
ATOM      7  C7  ESI d          10.776   6.294  23.602  0.00  0.00     0.003 A 
ATOM      8  C8  ESI d          10.506   4.991  23.980  0.00  0.00     0.019 A 
ATOM      9  C9  ESI d           9.213   4.562  24.214  0.00  0.00     0.018 A 
ATOM     10  I9  ESI d           9.016   2.602  24.708  0.00  0.00    -0.044 I 
ENDROOT
BRANCH   1  11
ATOM     11  C0  ESI d           4.595   6.316  24.156  0.00  0.00     0.109 C 
ATOM     12  N2  ESI d           4.017   5.253  24.636  0.00  0.00    -0.385 N 
ATOM     13  H3  ESI d           4.585   4.443  24.922  0.00  0.00     0.157 HD
ATOM     14  H4  ESI d           2.992   5.223  24.731  0.00  0.00     0.157 HD
BRANCH  11  15
ATOM     15  N1  ESI d           3.978   7.392  23.765  0.00  0.00    -0.385 N 
ATOM     16  H1  ESI d           3.223   7.329  23.067  0.00  0.00     0.157 HD
ATOM     17  H2  ESI d           4.244   8.307  24.154  0.00  0.00     0.157 HD
ENDBRANCH  11  15
ENDBRANCH   1  11
TORSDOF 2
ENDMDL
MODEL 10
REMARK VINA RESULT:      -4.7      4.164      5.227
REMARK  2 active torsions:
REMARK  status: ('A' for Active; 'I' for Inactive)
REMARK    1  A    between atoms: C0_1  and  C1_2 
REMARK    2  A    between atoms: C0_1  and  N1_3 
ROOT
ATOM      1  C1  ESI d           8.367   5.771  24.176  0.00  0.00     0.049 A 
ATOM      2  S2  ESI d           8.403   4.121  24.793  0.00  0.00    -0.086 SA
ATOM      3  C3  ESI d           8.028   4.570  26.420  0.00  0.00     0.017 A 
ATOM      4  C4  ESI d           7.888   5.950  26.453  0.00  0.00    -0.001 A 
ATOM      5  C5  ESI d           8.074   6.582  25.254  0.00  0.00     0.036 A 
ATOM      6  C6  ESI d           7.882   3.794  27.546  0.00  0.00     0.020 A 
ATOM      7  C7  ESI d           7.578   4.420  28.744  0.00  0.00     0.003 A 
ATOM      8  C8  ESI d           7.427   5.795  28.792  0.00  0.00     0.019 A 
ATOM      9  C9  ESI d           7.573   6.576  27.660  0.00  0.00     0.018 A 
ATOM     10  I9  ESI d           7.261   8.565  27.923  0.00  0.00    -0.044 I 
ENDROOT
BRANCH   1  11
ATOM     11  C0  ESI d           8.580   6.082  22.849  0.00  0.00     0.109 C 
ATOM     12  N2  ESI d           7.531   6.025  22.081  0.00  0.00    -0.385 N 
ATOM     13  H3  ESI d           6.617   5.762  22.476  0.00  0.00     0.157 HD
ATOM     14  H4  ESI d           7.614   6.243  21.078  0.00  0.00     0.157 HD
BRANCH  11  15
ATOM     15  N1  ESI d           9.778   6.403  22.458  0.00  0.00    -0.385 N 
ATOM     16  H1  ESI d          10.136   6.056  21.557  0.00  0.00     0.157 HD
ATOM     17  H2  ESI d          10.369   7.003  23.050  0.00  0.00     0.157 HD
ENDBRANCH  11  15
ENDBRANCH   1  11
TORSDOF 2
ENDMDL
