MODEL 1
REMARK VINA RESULT:      -9.5      0.000      0.000
REMARK  13 active torsions:
REMARK  status: ('A' for Active; 'I' for Inactive)
REMARK    1  A    between atoms: CA_2  and  N_1 
REMARK    2  A    between atoms: P_3  and  CA_2 
REMARK    3  A    between atoms: CA_2  and  CB_6 
REMARK    4  A    between atoms: CM_13  and  P_3 
REMARK    5  A    between atoms: CB_6  and  CG_7 
REMARK    6  A    between atoms: CA_14  and  CM_13 
REMARK    7  A    between atoms: CA_14  and  CB_15 
REMARK    8  A    between atoms: C_22  and  CA_14 
REMARK    9  A    between atoms: CB_15  and  CG_16 
REMARK       I    between atoms: C_22  and  N_24 
REMARK   10  A    between atoms: N_24  and  CA_25 
REMARK   11  A    between atoms: CA_25  and  CB_28 
REMARK   12  A    between atoms: CA_25  and  C_26 
REMARK   13  A    between atoms: CB_28  and  CG_29 
ROOT
ATOM      1  CA  MOL d          34.632  40.921  -7.341  0.00  0.00     0.092 C 
ENDROOT
BRANCH   1   2
ATOM      2  CM  MOL d          34.365  39.492  -6.830  0.00  0.00     0.120 C 
BRANCH   2   3
ATOM      3  P   MOL d          35.093  38.189  -7.762  0.00  0.00     0.138 P 
ATOM      4  O1P MOL d          36.136  37.481  -6.951  0.00  0.00    -0.666 OA
ATOM      5  O2P MOL d          35.758  38.678  -8.986  0.00  0.00    -0.666 OA
BRANCH   3   6
ATOM      6  CA  MOL d          33.660  37.322  -8.151  0.00  0.00     0.278 C 
BRANCH   6   7
ATOM      7  N   MOL d          33.952  35.876  -8.263  0.00  0.00    -0.065 N 
ATOM      8  H1  MOL d          33.566  35.392  -7.468  0.00  0.00     0.275 HD
ATOM      9  H2  MOL d          34.950  35.736  -8.289  0.00  0.00     0.275 HD
ATOM     10  H3  MOL d          33.540  35.514  -9.109  0.00  0.00     0.275 HD
ENDBRANCH   6   7
BRANCH   6  11
ATOM     11  CB  MOL d          32.423  37.294  -7.354  0.00  0.00     0.082 C 
BRANCH  11  12
ATOM     12  CG  MOL d          31.159  37.419  -8.197  0.00  0.00    -0.056 A 
ATOM     13  CD1 MOL d          31.082  38.475  -9.117  0.00  0.00     0.007 A 
ATOM     14  CE1 MOL d          29.897  38.556  -9.856  0.00  0.00     0.001 A 
ATOM     15  CZ  MOL d          28.861  37.644  -9.718  0.00  0.00     0.000 A 
ATOM     16  CE2 MOL d          29.011  36.636  -8.788  0.00  0.00     0.001 A 
ATOM     17  CD2 MOL d          30.103  36.547  -8.035  0.00  0.00     0.007 A 
ENDBRANCH  11  12
ENDBRANCH   6  11
ENDBRANCH   3   6
ENDBRANCH   2   3
ENDBRANCH   1   2
BRANCH   1  18
ATOM     18  CB  MOL d          33.318  41.530  -7.860  0.00  0.00     0.053 C 
BRANCH  18  19
ATOM     19  CG  MOL d          33.321  41.972  -9.306  0.00  0.00    -0.057 A 
ATOM     20  CD1 MOL d          33.646  43.272  -9.660  0.00  0.00     0.007 A 
ATOM     21  CE1 MOL d          33.642  43.681 -10.979  0.00  0.00     0.001 A 
ATOM     22  CZ  MOL d          33.315  42.765 -11.960  0.00  0.00     0.000 A 
ATOM     23  CE2 MOL d          32.986  41.462 -11.621  0.00  0.00     0.001 A 
ATOM     24  CD2 MOL d          33.021  41.056 -10.302  0.00  0.00     0.007 A 
ENDBRANCH  18  19
ENDBRANCH   1  18
BRANCH   1  25
ATOM     25  C   MOL d          35.319  41.859  -6.341  0.00  0.00     0.223 C 
ATOM     26  O   MOL d          35.115  43.069  -6.302  0.00  0.00    -0.273 OA
ATOM     27  N   MOL d          36.133  41.260  -5.504  0.00  0.00    -0.346 N 
ATOM     28  H22 MOL d          36.153  40.267  -5.620  0.00  0.00     0.163 HD
BRANCH  27  29
ATOM     29  CA  MOL d          37.008  41.726  -4.450  0.00  0.00     0.189 C 
BRANCH  29  30
ATOM     30  CB  MOL d          36.143  42.095  -3.277  0.00  0.00     0.074 C 
BRANCH  30  31
ATOM     31  CG  MOL d          36.625  42.451  -1.910  0.00  0.00    -0.056 A 
ATOM     32  CD1 MOL d          36.541  41.561  -0.858  0.00  0.00     0.007 A 
ATOM     33  CE1 MOL d          37.002  41.861   0.411  0.00  0.00     0.001 A 
ATOM     34  CZ  MOL d          37.567  43.105   0.632  0.00  0.00     0.000 A 
ATOM     35  CE2 MOL d          37.657  44.017  -0.408  0.00  0.00     0.001 A 
ATOM     36  CD2 MOL d          37.195  43.696  -1.670  0.00  0.00     0.007 A 
ENDBRANCH  30  31
ENDBRANCH  29  30
BRANCH  29  37
ATOM     37  C   MOL d          37.977  40.589  -4.118  0.00  0.00     0.197 C 
ATOM     38  O   MOL d          37.677  39.439  -4.490  0.00  0.00    -0.646 OA
ATOM     39  OXT MOL d          39.011  40.853  -3.509  0.00  0.00    -0.646 OA
ENDBRANCH  29  37
ENDBRANCH  27  29
ENDBRANCH   1  25
TORSDOF 13
ENDMDL
MODEL 2
REMARK VINA RESULT:      -9.2      1.295      2.063
REMARK  13 active torsions:
REMARK  status: ('A' for Active; 'I' for Inactive)
REMARK    1  A    between atoms: CA_2  and  N_1 
REMARK    2  A    between atoms: P_3  and  CA_2 
REMARK    3  A    between atoms: CA_2  and  CB_6 
REMARK    4  A    between atoms: CM_13  and  P_3 
REMARK    5  A    between atoms: CB_6  and  CG_7 
REMARK    6  A    between atoms: CA_14  and  CM_13 
REMARK    7  A    between atoms: CA_14  and  CB_15 
REMARK    8  A    between atoms: C_22  and  CA_14 
REMARK    9  A    between atoms: CB_15  and  CG_16 
REMARK       I    between atoms: C_22  and  N_24 
REMARK   10  A    between atoms: N_24  and  CA_25 
REMARK   11  A    between atoms: CA_25  and  CB_28 
REMARK   12  A    between atoms: CA_25  and  C_26 
REMARK   13  A    between atoms: CB_28  and  CG_29 
ROOT
ATOM      1  CA  MOL d          34.596  41.213  -7.281  0.00  0.00     0.092 C 
ENDROOT
BRANCH   1   2
ATOM      2  CM  MOL d          34.487  39.699  -7.011  0.00  0.00     0.120 C 
BRANCH   2   3
ATOM      3  P   MOL d          35.255  38.646  -8.193  0.00  0.00     0.138 P 
ATOM      4  O1P MOL d          36.309  37.803  -7.540  0.00  0.00    -0.666 OA
ATOM      5  O2P MOL d          35.918  39.403  -9.273  0.00  0.00    -0.666 OA
BRANCH   3   6
ATOM      6  CA  MOL d          33.848  37.852  -8.779  0.00  0.00     0.278 C 
BRANCH   6   7
ATOM      7  N   MOL d          33.650  36.569  -8.067  0.00  0.00    -0.065 N 
ATOM      8  H1  MOL d          33.753  36.716  -7.075  0.00  0.00     0.275 HD
ATOM      9  H2  MOL d          34.337  35.902  -8.381  0.00  0.00     0.275 HD
ATOM     10  H3  MOL d          32.726  36.217  -8.260  0.00  0.00     0.275 HD
ENDBRANCH   6   7
BRANCH   6  11
ATOM     11  CB  MOL d          32.479  38.391  -8.761  0.00  0.00     0.082 C 
BRANCH  11  12
ATOM     12  CG  MOL d          32.136  39.211 -10.001  0.00  0.00    -0.056 A 
ATOM     13  CD1 MOL d          30.953  39.964  -9.987  0.00  0.00     0.007 A 
ATOM     14  CE1 MOL d          30.675  40.687 -11.151  0.00  0.00     0.001 A 
ATOM     15  CZ  MOL d          31.517  40.690 -12.254  0.00  0.00     0.000 A 
ATOM     16  CE2 MOL d          32.661  39.921 -12.191  0.00  0.00     0.001 A 
ATOM     17  CD2 MOL d          32.942  39.185 -11.120  0.00  0.00     0.007 A 
ENDBRANCH  11  12
ENDBRANCH   6  11
ENDBRANCH   3   6
ENDBRANCH   2   3
ENDBRANCH   1   2
BRANCH   1  18
ATOM     18  CB  MOL d          33.192  41.785  -7.540  0.00  0.00     0.053 C 
BRANCH  18  19
ATOM     19  CG  MOL d          33.047  42.643  -8.777  0.00  0.00    -0.057 A 
ATOM     20  CD1 MOL d          32.048  43.600  -8.874  0.00  0.00     0.007 A 
ATOM     21  CE1 MOL d          31.908  44.380 -10.006  0.00  0.00     0.001 A 
ATOM     22  CZ  MOL d          32.792  44.201 -11.053  0.00  0.00     0.000 A 
ATOM     23  CE2 MOL d          33.792  43.246 -10.970  0.00  0.00     0.001 A 
ATOM     24  CD2 MOL d          33.942  42.492  -9.823  0.00  0.00     0.007 A 
ENDBRANCH  18  19
ENDBRANCH   1  18
BRANCH   1  25
ATOM     25  C   MOL d          35.333  42.021  -6.205  0.00  0.00     0.223 C 
ATOM     26  O   MOL d          35.174  43.227  -6.041  0.00  0.00    -0.273 OA
ATOM     27  N   MOL d          36.137  41.312  -5.449  0.00  0.00    -0.346 N 
ATOM     28  H22 MOL d          36.119  40.336  -5.664  0.00  0.00     0.163 HD
BRANCH  27  29
ATOM     29  CA  MOL d          37.046  41.640  -4.370  0.00  0.00     0.189 C 
BRANCH  29  30
ATOM     30  CB  MOL d          36.212  41.962  -3.162  0.00  0.00     0.074 C 
BRANCH  30  31
ATOM     31  CG  MOL d          36.730  42.388  -1.828  0.00  0.00    -0.056 A 
ATOM     32  CD1 MOL d          37.272  43.641  -1.629  0.00  0.00     0.007 A 
ATOM     33  CE1 MOL d          37.736  44.066  -0.397  0.00  0.00     0.001 A 
ATOM     34  CZ  MOL d          37.655  43.195   0.675  0.00  0.00     0.000 A 
ATOM     35  CE2 MOL d          37.119  41.929   0.498  0.00  0.00     0.001 A 
ATOM     36  CD2 MOL d          36.656  41.526  -0.740  0.00  0.00     0.007 A 
ENDBRANCH  30  31
ENDBRANCH  29  30
BRANCH  29  37
ATOM     37  C   MOL d          37.948  40.424  -4.143  0.00  0.00     0.197 C 
ATOM     38  O   MOL d          37.583  39.330  -4.613  0.00  0.00    -0.646 OA
ATOM     39  OXT MOL d          38.994  40.575  -3.517  0.00  0.00    -0.646 OA
ENDBRANCH  29  37
ENDBRANCH  27  29
ENDBRANCH   1  25
TORSDOF 13
ENDMDL
MODEL 3
REMARK VINA RESULT:      -9.1      4.056      7.389
REMARK  13 active torsions:
REMARK  status: ('A' for Active; 'I' for Inactive)
REMARK    1  A    between atoms: CA_2  and  N_1 
REMARK    2  A    between atoms: P_3  and  CA_2 
REMARK    3  A    between atoms: CA_2  and  CB_6 
REMARK    4  A    between atoms: CM_13  and  P_3 
REMARK    5  A    between atoms: CB_6  and  CG_7 
REMARK    6  A    between atoms: CA_14  and  CM_13 
REMARK    7  A    between atoms: CA_14  and  CB_15 
REMARK    8  A    between atoms: C_22  and  CA_14 
REMARK    9  A    between atoms: CB_15  and  CG_16 
REMARK       I    between atoms: C_22  and  N_24 
REMARK   10  A    between atoms: N_24  and  CA_25 
REMARK   11  A    between atoms: CA_25  and  CB_28 
REMARK   12  A    between atoms: CA_25  and  C_26 
REMARK   13  A    between atoms: CB_28  and  CG_29 
ROOT
ATOM      1  CA  MOL d          32.562  42.555 -10.841  0.00  0.00     0.092 C 
ENDROOT
BRANCH   1   2
ATOM      2  CM  MOL d          33.476  43.509 -11.634  0.00  0.00     0.120 C 
BRANCH   2   3
ATOM      3  P   MOL d          32.753  45.031 -12.139  0.00  0.00     0.138 P 
ATOM      4  O1P MOL d          33.795  46.107 -12.219  0.00  0.00    -0.666 OA
ATOM      5  O2P MOL d          31.721  45.503 -11.194  0.00  0.00    -0.666 OA
BRANCH   3   6
ATOM      6  CA  MOL d          32.039  44.501 -13.608  0.00  0.00     0.278 C 
BRANCH   6   7
ATOM      7  N   MOL d          32.466  45.370 -14.728  0.00  0.00    -0.065 N 
ATOM      8  H1  MOL d          31.754  46.059 -14.909  0.00  0.00     0.275 HD
ATOM      9  H2  MOL d          32.607  44.809 -15.553  0.00  0.00     0.275 HD
ATOM     10  H3  MOL d          33.327  45.833 -14.484  0.00  0.00     0.275 HD
ENDBRANCH   6   7
BRANCH   6  11
ATOM     11  CB  MOL d          32.197  43.170 -14.216  0.00  0.00     0.082 C 
BRANCH  11  12
ATOM     12  CG  MOL d          30.895  42.378 -14.286  0.00  0.00    -0.056 A 
ATOM     13  CD1 MOL d          29.866  42.724 -13.398  0.00  0.00     0.007 A 
ATOM     14  CE1 MOL d          28.698  41.961 -13.491  0.00  0.00     0.001 A 
ATOM     15  CZ  MOL d          28.540  40.936 -14.413  0.00  0.00     0.000 A 
ATOM     16  CE2 MOL d          29.600  40.655 -15.249  0.00  0.00     0.001 A 
ATOM     17  CD2 MOL d          30.744  41.328 -15.166  0.00  0.00     0.007 A 
ENDBRANCH  11  12
ENDBRANCH   6  11
ENDBRANCH   3   6
ENDBRANCH   2   3
ENDBRANCH   1   2
BRANCH   1  18
ATOM     18  CB  MOL d          32.828  41.107 -11.287  0.00  0.00     0.053 C 
BRANCH  18  19
ATOM     19  CG  MOL d          31.610  40.217 -11.400  0.00  0.00    -0.057 A 
ATOM     20  CD1 MOL d          31.541  39.210 -12.351  0.00  0.00     0.007 A 
ATOM     21  CE1 MOL d          30.428  38.401 -12.462  0.00  0.00     0.001 A 
ATOM     22  CZ  MOL d          29.369  38.600 -11.597  0.00  0.00     0.000 A 
ATOM     23  CE2 MOL d          29.424  39.603 -10.643  0.00  0.00     0.001 A 
ATOM     24  CD2 MOL d          30.553  40.388 -10.521  0.00  0.00     0.007 A 
ENDBRANCH  18  19
ENDBRANCH   1  18
BRANCH   1  25
ATOM     25  C   MOL d          32.641  42.686  -9.314  0.00  0.00     0.223 C 
ATOM     26  O   MOL d          32.112  43.599  -8.688  0.00  0.00    -0.273 OA
ATOM     27  N   MOL d          33.305  41.723  -8.720  0.00  0.00    -0.346 N 
ATOM     28  H22 MOL d          33.629  41.020  -9.354  0.00  0.00     0.163 HD
BRANCH  27  29
ATOM     29  CA  MOL d          33.670  41.458  -7.344  0.00  0.00     0.189 C 
BRANCH  29  30
ATOM     30  CB  MOL d          33.982  39.992  -7.236  0.00  0.00     0.074 C 
BRANCH  30  31
ATOM     31  CG  MOL d          33.431  38.912  -8.107  0.00  0.00    -0.056 A 
ATOM     32  CD1 MOL d          34.150  38.402  -9.169  0.00  0.00     0.007 A 
ATOM     33  CE1 MOL d          33.669  37.386  -9.976  0.00  0.00     0.001 A 
ATOM     34  CZ  MOL d          32.416  36.865  -9.705  0.00  0.00     0.000 A 
ATOM     35  CE2 MOL d          31.674  37.365  -8.647  0.00  0.00     0.001 A 
ATOM     36  CD2 MOL d          32.174  38.377  -7.850  0.00  0.00     0.007 A 
ENDBRANCH  30  31
ENDBRANCH  29  30
BRANCH  29  37
ATOM     37  C   MOL d          34.882  42.333  -7.013  0.00  0.00     0.197 C 
ATOM     38  O   MOL d          34.754  43.193  -6.121  0.00  0.00    -0.646 OA
ATOM     39  OXT MOL d          35.928  42.149  -7.629  0.00  0.00    -0.646 OA
ENDBRANCH  29  37
ENDBRANCH  27  29
ENDBRANCH   1  25
TORSDOF 13
ENDMDL
MODEL 4
REMARK VINA RESULT:      -8.8      2.042      3.671
REMARK  13 active torsions:
REMARK  status: ('A' for Active; 'I' for Inactive)
REMARK    1  A    between atoms: CA_2  and  N_1 
REMARK    2  A    between atoms: P_3  and  CA_2 
REMARK    3  A    between atoms: CA_2  and  CB_6 
REMARK    4  A    between atoms: CM_13  and  P_3 
REMARK    5  A    between atoms: CB_6  and  CG_7 
REMARK    6  A    between atoms: CA_14  and  CM_13 
REMARK    7  A    between atoms: CA_14  and  CB_15 
REMARK    8  A    between atoms: C_22  and  CA_14 
REMARK    9  A    between atoms: CB_15  and  CG_16 
REMARK       I    between atoms: C_22  and  N_24 
REMARK   10  A    between atoms: N_24  and  CA_25 
REMARK   11  A    between atoms: CA_25  and  CB_28 
REMARK   12  A    between atoms: CA_25  and  C_26 
REMARK   13  A    between atoms: CB_28  and  CG_29 
ROOT
ATOM      1  CA  MOL d          34.364  40.864  -7.103  0.00  0.00     0.092 C 
ENDROOT
BRANCH   1   2
ATOM      2  CM  MOL d          34.373  41.193  -8.609  0.00  0.00     0.120 C 
BRANCH   2   3
ATOM      3  P   MOL d          33.179  42.366  -9.152  0.00  0.00     0.138 P 
ATOM      4  O1P MOL d          33.831  43.442  -9.966  0.00  0.00    -0.666 OA
ATOM      5  O2P MOL d          32.496  43.033  -8.025  0.00  0.00    -0.666 OA
BRANCH   3   6
ATOM      6  CA  MOL d          32.112  41.288  -9.961  0.00  0.00     0.278 C 
BRANCH   6   7
ATOM      7  N   MOL d          31.437  41.982 -11.080  0.00  0.00    -0.065 N 
ATOM      8  H1  MOL d          30.525  42.291 -10.783  0.00  0.00     0.275 HD
ATOM      9  H2  MOL d          31.339  41.348 -11.858  0.00  0.00     0.275 HD
ATOM     10  H3  MOL d          31.986  42.778 -11.363  0.00  0.00     0.275 HD
ENDBRANCH   6   7
BRANCH   6  11
ATOM     11  CB  MOL d          32.489  40.021 -10.607  0.00  0.00     0.082 C 
BRANCH  11  12
ATOM     12  CG  MOL d          31.357  38.999 -10.638  0.00  0.00    -0.056 A 
ATOM     13  CD1 MOL d          31.434  37.959 -11.576  0.00  0.00     0.007 A 
ATOM     14  CE1 MOL d          30.367  37.056 -11.576  0.00  0.00     0.001 A 
ATOM     15  CZ  MOL d          29.300  37.152 -10.694  0.00  0.00     0.000 A 
ATOM     16  CE2 MOL d          29.295  38.206  -9.804  0.00  0.00     0.001 A 
ATOM     17  CD2 MOL d          30.269  39.112  -9.799  0.00  0.00     0.007 A 
ENDBRANCH  11  12
ENDBRANCH   6  11
ENDBRANCH   3   6
ENDBRANCH   2   3
ENDBRANCH   1   2
BRANCH   1  18
ATOM     18  CB  MOL d          34.842  39.417  -6.896  0.00  0.00     0.053 C 
BRANCH  18  19
ATOM     19  CG  MOL d          33.902  38.335  -7.380  0.00  0.00    -0.057 A 
ATOM     20  CD1 MOL d          32.642  38.177  -6.822  0.00  0.00     0.007 A 
ATOM     21  CE1 MOL d          31.784  37.186  -7.256  0.00  0.00     0.001 A 
ATOM     22  CZ  MOL d          32.194  36.346  -8.274  0.00  0.00     0.000 A 
ATOM     23  CE2 MOL d          33.451  36.492  -8.838  0.00  0.00     0.001 A 
ATOM     24  CD2 MOL d          34.291  37.504  -8.417  0.00  0.00     0.007 A 
ENDBRANCH  18  19
ENDBRANCH   1  18
BRANCH   1  25
ATOM     25  C   MOL d          35.147  41.838  -6.213  0.00  0.00     0.223 C 
ATOM     26  O   MOL d          35.062  43.058  -6.311  0.00  0.00    -0.273 OA
ATOM     27  N   MOL d          35.906  41.259  -5.313  0.00  0.00    -0.346 N 
ATOM     28  H22 MOL d          35.829  40.263  -5.315  0.00  0.00     0.163 HD
BRANCH  27  29
ATOM     29  CA  MOL d          36.832  41.754  -4.315  0.00  0.00     0.189 C 
BRANCH  29  30
ATOM     30  CB  MOL d          36.038  42.050  -3.073  0.00  0.00     0.074 C 
BRANCH  30  31
ATOM     31  CG  MOL d          36.598  42.468  -1.754  0.00  0.00    -0.056 A 
ATOM     32  CD1 MOL d          36.558  41.635  -0.654  0.00  0.00     0.007 A 
ATOM     33  CE1 MOL d          37.091  41.992   0.572  0.00  0.00     0.001 A 
ATOM     34  CZ  MOL d          37.686  43.235   0.696  0.00  0.00     0.000 A 
ATOM     35  CE2 MOL d          37.733  44.091  -0.393  0.00  0.00     0.001 A 
ATOM     36  CD2 MOL d          37.199  43.713  -1.610  0.00  0.00     0.007 A 
ENDBRANCH  30  31
ENDBRANCH  29  30
BRANCH  29  37
ATOM     37  C   MOL d          37.884  40.667  -4.083  0.00  0.00     0.197 C 
ATOM     38  O   MOL d          38.941  40.990  -3.510  0.00  0.00    -0.646 OA
ATOM     39  OXT MOL d          37.643  39.523  -4.462  0.00  0.00    -0.646 OA
ENDBRANCH  29  37
ENDBRANCH  27  29
ENDBRANCH   1  25
TORSDOF 13
ENDMDL
MODEL 5
REMARK VINA RESULT:      -8.6      3.920      6.470
REMARK  13 active torsions:
REMARK  status: ('A' for Active; 'I' for Inactive)
REMARK    1  A    between atoms: CA_2  and  N_1 
REMARK    2  A    between atoms: P_3  and  CA_2 
REMARK    3  A    between atoms: CA_2  and  CB_6 
REMARK    4  A    between atoms: CM_13  and  P_3 
REMARK    5  A    between atoms: CB_6  and  CG_7 
REMARK    6  A    between atoms: CA_14  and  CM_13 
REMARK    7  A    between atoms: CA_14  and  CB_15 
REMARK    8  A    between atoms: C_22  and  CA_14 
REMARK    9  A    between atoms: CB_15  and  CG_16 
REMARK       I    between atoms: C_22  and  N_24 
REMARK   10  A    between atoms: N_24  and  CA_25 
REMARK   11  A    between atoms: CA_25  and  CB_28 
REMARK   12  A    between atoms: CA_25  and  C_26 
REMARK   13  A    between atoms: CB_28  and  CG_29 
ROOT
ATOM      1  CA  MOL d          32.466  38.699  -9.015  0.00  0.00     0.092 C 
ENDROOT
BRANCH   1   2
ATOM      2  CM  MOL d          32.152  37.931  -7.716  0.00  0.00     0.120 C 
BRANCH   2   3
ATOM      3  P   MOL d          32.566  36.221  -7.709  0.00  0.00     0.138 P 
ATOM      4  O1P MOL d          33.081  35.810  -6.362  0.00  0.00    -0.666 OA
ATOM      5  O2P MOL d          33.621  35.895  -8.690  0.00  0.00    -0.666 OA
BRANCH   3   6
ATOM      6  CA  MOL d          31.049  35.588  -8.211  0.00  0.00     0.278 C 
BRANCH   6   7
ATOM      7  N   MOL d          30.730  34.360  -7.449  0.00  0.00    -0.065 N 
ATOM      8  H1  MOL d          30.031  33.830  -7.944  0.00  0.00     0.275 HD
ATOM      9  H2  MOL d          30.379  34.612  -6.538  0.00  0.00     0.275 HD
ATOM     10  H3  MOL d          31.563  33.803  -7.346  0.00  0.00     0.275 HD
ENDBRANCH   6   7
BRANCH   6  11
ATOM     11  CB  MOL d          29.758  36.291  -8.156  0.00  0.00     0.082 C 
BRANCH  11  12
ATOM     12  CG  MOL d          29.133  36.517  -9.528  0.00  0.00    -0.056 A 
ATOM     13  CD1 MOL d          29.692  35.845 -10.625  0.00  0.00     0.007 A 
ATOM     14  CE1 MOL d          29.093  36.095 -11.864  0.00  0.00     0.001 A 
ATOM     15  CZ  MOL d          28.000  36.934 -12.015  0.00  0.00     0.000 A 
ATOM     16  CE2 MOL d          27.510  37.562 -10.888  0.00  0.00     0.001 A 
ATOM     17  CD2 MOL d          28.076  37.385  -9.698  0.00  0.00     0.007 A 
ENDBRANCH  11  12
ENDBRANCH   6  11
ENDBRANCH   3   6
ENDBRANCH   2   3
ENDBRANCH   1   2
BRANCH   1  18
ATOM     18  CB  MOL d          31.224  39.497  -9.447  0.00  0.00     0.053 C 
BRANCH  18  19
ATOM     19  CG  MOL d          30.918  39.490 -10.928  0.00  0.00    -0.057 A 
ATOM     20  CD1 MOL d          29.883  40.249 -11.451  0.00  0.00     0.007 A 
ATOM     21  CE1 MOL d          29.595  40.239 -12.802  0.00  0.00     0.001 A 
ATOM     22  CZ  MOL d          30.366  39.459 -13.642  0.00  0.00     0.000 A 
ATOM     23  CE2 MOL d          31.402  38.693 -13.132  0.00  0.00     0.001 A 
ATOM     24  CD2 MOL d          31.700  38.733 -11.785  0.00  0.00     0.007 A 
ENDBRANCH  18  19
ENDBRANCH   1  18
BRANCH   1  25
ATOM     25  C   MOL d          33.710  39.596  -8.963  0.00  0.00     0.223 C 
ATOM     26  O   MOL d          34.849  39.161  -8.821  0.00  0.00    -0.273 OA
ATOM     27  N   MOL d          33.462  40.876  -9.109  0.00  0.00    -0.346 N 
ATOM     28  H22 MOL d          32.496  41.073  -9.273  0.00  0.00     0.163 HD
BRANCH  27  29
ATOM     29  CA  MOL d          34.288  42.065  -9.083  0.00  0.00     0.189 C 
BRANCH  29  30
ATOM     30  CB  MOL d          33.508  43.168  -9.743  0.00  0.00     0.074 C 
BRANCH  30  31
ATOM     31  CG  MOL d          33.324  43.353 -11.213  0.00  0.00    -0.056 A 
ATOM     32  CD1 MOL d          32.931  42.311 -12.029  0.00  0.00     0.007 A 
ATOM     33  CE1 MOL d          32.732  42.464 -13.389  0.00  0.00     0.001 A 
ATOM     34  CZ  MOL d          32.938  43.712 -13.951  0.00  0.00     0.000 A 
ATOM     35  CE2 MOL d          33.337  44.772 -13.152  0.00  0.00     0.001 A 
ATOM     36  CD2 MOL d          33.526  44.599 -11.794  0.00  0.00     0.007 A 
ENDBRANCH  30  31
ENDBRANCH  29  30
BRANCH  29  37
ATOM     37  C   MOL d          34.602  42.376  -7.617  0.00  0.00     0.197 C 
ATOM     38  O   MOL d          33.646  42.555  -6.840  0.00  0.00    -0.646 OA
ATOM     39  OXT MOL d          35.778  42.429  -7.265  0.00  0.00    -0.646 OA
ENDBRANCH  29  37
ENDBRANCH  27  29
ENDBRANCH   1  25
TORSDOF 13
ENDMDL
MODEL 6
REMARK VINA RESULT:      -8.5      4.598      7.861
REMARK  13 active torsions:
REMARK  status: ('A' for Active; 'I' for Inactive)
REMARK    1  A    between atoms: CA_2  and  N_1 
REMARK    2  A    between atoms: P_3  and  CA_2 
REMARK    3  A    between atoms: CA_2  and  CB_6 
REMARK    4  A    between atoms: CM_13  and  P_3 
REMARK    5  A    between atoms: CB_6  and  CG_7 
REMARK    6  A    between atoms: CA_14  and  CM_13 
REMARK    7  A    between atoms: CA_14  and  CB_15 
REMARK    8  A    between atoms: C_22  and  CA_14 
REMARK    9  A    between atoms: CB_15  and  CG_16 
REMARK       I    between atoms: C_22  and  N_24 
REMARK   10  A    between atoms: N_24  and  CA_25 
REMARK   11  A    between atoms: CA_25  and  CB_28 
REMARK   12  A    between atoms: CA_25  and  C_26 
REMARK   13  A    between atoms: CB_28  and  CG_29 
ROOT
ATOM      1  CA  MOL d          33.284  39.380  -8.673  0.00  0.00     0.092 C 
ENDROOT
BRANCH   1   2
ATOM      2  CM  MOL d          34.462  40.358  -8.851  0.00  0.00     0.120 C 
BRANCH   2   3
ATOM      3  P   MOL d          34.214  41.989  -8.238  0.00  0.00     0.138 P 
ATOM      4  O1P MOL d          35.529  42.646  -7.946  0.00  0.00    -0.666 OA
ATOM      5  O2P MOL d          33.437  42.004  -6.982  0.00  0.00    -0.666 OA
BRANCH   3   6
ATOM      6  CA  MOL d          33.282  42.612  -9.540  0.00  0.00     0.278 C 
BRANCH   6   7
ATOM      7  N   MOL d          32.041  43.236  -9.028  0.00  0.00    -0.065 N 
ATOM      8  H1  MOL d          32.217  43.637  -8.120  0.00  0.00     0.275 HD
ATOM      9  H2  MOL d          31.320  42.536  -8.952  0.00  0.00     0.275 HD
ATOM     10  H3  MOL d          31.742  43.959  -9.663  0.00  0.00     0.275 HD
ENDBRANCH   6   7
BRANCH   6  11
ATOM     11  CB  MOL d          33.721  43.627 -10.511  0.00  0.00     0.082 C 
BRANCH  11  12
ATOM     12  CG  MOL d          33.304  43.314 -11.944  0.00  0.00    -0.056 A 
ATOM     13  CD1 MOL d          33.265  44.371 -12.865  0.00  0.00     0.007 A 
ATOM     14  CE1 MOL d          32.863  44.037 -14.161  0.00  0.00     0.001 A 
ATOM     15  CZ  MOL d          32.540  42.742 -14.539  0.00  0.00     0.000 A 
ATOM     16  CE2 MOL d          32.599  41.758 -13.573  0.00  0.00     0.001 A 
ATOM     17  CD2 MOL d          32.935  42.039 -12.318  0.00  0.00     0.007 A 
ENDBRANCH  11  12
ENDBRANCH   6  11
ENDBRANCH   3   6
ENDBRANCH   2   3
ENDBRANCH   1   2
BRANCH   1  18
ATOM     18  CB  MOL d          32.979  38.700 -10.018  0.00  0.00     0.053 C 
BRANCH  18  19
ATOM     19  CG  MOL d          31.657  39.063 -10.657  0.00  0.00    -0.057 A 
ATOM     20  CD1 MOL d          31.368  38.704 -11.964  0.00  0.00     0.007 A 
ATOM     21  CE1 MOL d          30.165  39.040 -12.553  0.00  0.00     0.001 A 
ATOM     22  CZ  MOL d          29.233  39.741 -11.811  0.00  0.00     0.000 A 
ATOM     23  CE2 MOL d          29.509  40.108 -10.504  0.00  0.00     0.001 A 
ATOM     24  CD2 MOL d          30.703  39.742  -9.916  0.00  0.00     0.007 A 
ENDBRANCH  18  19
ENDBRANCH   1  18
BRANCH   1  25
ATOM     25  C   MOL d          33.455  38.344  -7.555  0.00  0.00     0.223 C 
ATOM     26  O   MOL d          33.864  38.624  -6.433  0.00  0.00    -0.273 OA
ATOM     27  N   MOL d          33.102  37.124  -7.887  0.00  0.00    -0.346 N 
ATOM     28  H22 MOL d          32.735  37.061  -8.815  0.00  0.00     0.163 HD
BRANCH  27  29
ATOM     29  CA  MOL d          33.131  35.850  -7.199  0.00  0.00     0.189 C 
BRANCH  29  30
ATOM     30  CB  MOL d          31.967  35.043  -7.701  0.00  0.00     0.074 C 
BRANCH  30  31
ATOM     31  CG  MOL d          30.883  35.534  -8.603  0.00  0.00    -0.056 A 
ATOM     32  CD1 MOL d          30.873  35.235  -9.950  0.00  0.00     0.007 A 
ATOM     33  CE1 MOL d          29.867  35.659 -10.801  0.00  0.00     0.001 A 
ATOM     34  CZ  MOL d          28.833  36.415 -10.275  0.00  0.00     0.000 A 
ATOM     35  CE2 MOL d          28.826  36.732  -8.926  0.00  0.00     0.001 A 
ATOM     36  CD2 MOL d          29.837  36.294  -8.093  0.00  0.00     0.007 A 
ENDBRANCH  30  31
ENDBRANCH  29  30
BRANCH  29  37
ATOM     37  C   MOL d          34.474  35.187  -7.514  0.00  0.00     0.197 C 
ATOM     38  O   MOL d          34.542  34.455  -8.519  0.00  0.00    -0.646 OA
ATOM     39  OXT MOL d          35.428  35.408  -6.773  0.00  0.00    -0.646 OA
ENDBRANCH  29  37
ENDBRANCH  27  29
ENDBRANCH   1  25
TORSDOF 13
ENDMDL
MODEL 7
REMARK VINA RESULT:      -8.4      4.492      7.138
REMARK  13 active torsions:
REMARK  status: ('A' for Active; 'I' for Inactive)
REMARK    1  A    between atoms: CA_2  and  N_1 
REMARK    2  A    between atoms: P_3  and  CA_2 
REMARK    3  A    between atoms: CA_2  and  CB_6 
REMARK    4  A    between atoms: CM_13  and  P_3 
REMARK    5  A    between atoms: CB_6  and  CG_7 
REMARK    6  A    between atoms: CA_14  and  CM_13 
REMARK    7  A    between atoms: CA_14  and  CB_15 
REMARK    8  A    between atoms: C_22  and  CA_14 
REMARK    9  A    between atoms: CB_15  and  CG_16 
REMARK       I    between atoms: C_22  and  N_24 
REMARK   10  A    between atoms: N_24  and  CA_25 
REMARK   11  A    between atoms: CA_25  and  CB_28 
REMARK   12  A    between atoms: CA_25  and  C_26 
REMARK   13  A    between atoms: CB_28  and  CG_29 
ROOT
ATOM      1  CA  MOL d          34.046  38.425  -8.579  0.00  0.00     0.092 C 
ENDROOT
BRANCH   1   2
ATOM      2  CM  MOL d          35.102  37.455  -8.013  0.00  0.00     0.120 C 
BRANCH   2   3
ATOM      3  P   MOL d          35.197  35.878  -8.786  0.00  0.00     0.138 P 
ATOM      4  O1P MOL d          34.363  34.877  -8.043  0.00  0.00    -0.666 OA
ATOM      5  O2P MOL d          36.576  35.350  -8.818  0.00  0.00    -0.666 OA
BRANCH   3   6
ATOM      6  CA  MOL d          34.681  36.333 -10.361  0.00  0.00     0.278 C 
BRANCH   6   7
ATOM      7  N   MOL d          35.732  36.019 -11.354  0.00  0.00    -0.065 N 
ATOM      8  H1  MOL d          35.847  36.800 -11.980  0.00  0.00     0.275 HD
ATOM      9  H2  MOL d          35.463  35.203 -11.881  0.00  0.00     0.275 HD
ATOM     10  H3  MOL d          36.602  35.840 -10.878  0.00  0.00     0.275 HD
ENDBRANCH   6   7
BRANCH   6  11
ATOM     11  CB  MOL d          33.485  35.835 -11.057  0.00  0.00     0.082 C 
BRANCH  11  12
ATOM     12  CG  MOL d          32.736  36.919 -11.826  0.00  0.00    -0.056 A 
ATOM     13  CD1 MOL d          31.522  36.574 -12.438  0.00  0.00     0.007 A 
ATOM     14  CE1 MOL d          30.881  37.598 -13.142  0.00  0.00     0.001 A 
ATOM     15  CZ  MOL d          31.387  38.888 -13.222  0.00  0.00     0.000 A 
ATOM     16  CE2 MOL d          32.589  39.146 -12.595  0.00  0.00     0.001 A 
ATOM     17  CD2 MOL d          33.253  38.191 -11.951  0.00  0.00     0.007 A 
ENDBRANCH  11  12
ENDBRANCH   6  11
ENDBRANCH   3   6
ENDBRANCH   2   3
ENDBRANCH   1   2
BRANCH   1  18
ATOM     18  CB  MOL d          32.802  38.407  -7.673  0.00  0.00     0.053 C 
BRANCH  18  19
ATOM     19  CG  MOL d          31.517  37.947  -8.326  0.00  0.00    -0.057 A 
ATOM     20  CD1 MOL d          30.841  38.754  -9.228  0.00  0.00     0.007 A 
ATOM     21  CE1 MOL d          29.664  38.341  -9.820  0.00  0.00     0.001 A 
ATOM     22  CZ  MOL d          29.163  37.092  -9.507  0.00  0.00     0.000 A 
ATOM     23  CE2 MOL d          29.827  36.277  -8.606  0.00  0.00     0.001 A 
ATOM     24  CD2 MOL d          31.018  36.687  -8.041  0.00  0.00     0.007 A 
ENDBRANCH  18  19
ENDBRANCH   1  18
BRANCH   1  25
ATOM     25  C   MOL d          34.533  39.859  -8.821  0.00  0.00     0.223 C 
ATOM     26  O   MOL d          35.698  40.211  -8.664  0.00  0.00    -0.273 OA
ATOM     27  N   MOL d          33.602  40.686  -9.237  0.00  0.00    -0.346 N 
ATOM     28  H22 MOL d          32.716  40.243  -9.373  0.00  0.00     0.163 HD
BRANCH  27  29
ATOM     29  CA  MOL d          33.583  42.101  -9.541  0.00  0.00     0.189 C 
BRANCH  29  30
ATOM     30  CB  MOL d          32.705  42.289 -10.747  0.00  0.00     0.074 C 
BRANCH  30  31
ATOM     31  CG  MOL d          32.969  43.218 -11.886  0.00  0.00    -0.056 A 
ATOM     32  CD1 MOL d          32.686  42.862 -13.189  0.00  0.00     0.007 A 
ATOM     33  CE1 MOL d          32.900  43.714 -14.258  0.00  0.00     0.001 A 
ATOM     34  CZ  MOL d          33.421  44.971 -14.007  0.00  0.00     0.000 A 
ATOM     35  CE2 MOL d          33.719  45.348 -12.706  0.00  0.00     0.001 A 
ATOM     36  CD2 MOL d          33.492  44.484 -11.652  0.00  0.00     0.007 A 
ENDBRANCH  30  31
ENDBRANCH  29  30
BRANCH  29  37
ATOM     37  C   MOL d          33.038  42.829  -8.310  0.00  0.00     0.197 C 
ATOM     38  O   MOL d          32.027  43.542  -8.453  0.00  0.00    -0.646 OA
ATOM     39  OXT MOL d          33.611  42.678  -7.234  0.00  0.00    -0.646 OA
ENDBRANCH  29  37
ENDBRANCH  27  29
ENDBRANCH   1  25
TORSDOF 13
ENDMDL
MODEL 8
REMARK VINA RESULT:      -8.4      1.974      8.505
REMARK  13 active torsions:
REMARK  status: ('A' for Active; 'I' for Inactive)
REMARK    1  A    between atoms: CA_2  and  N_1 
REMARK    2  A    between atoms: P_3  and  CA_2 
REMARK    3  A    between atoms: CA_2  and  CB_6 
REMARK    4  A    between atoms: CM_13  and  P_3 
REMARK    5  A    between atoms: CB_6  and  CG_7 
REMARK    6  A    between atoms: CA_14  and  CM_13 
REMARK    7  A    between atoms: CA_14  and  CB_15 
REMARK    8  A    between atoms: C_22  and  CA_14 
REMARK    9  A    between atoms: CB_15  and  CG_16 
REMARK       I    between atoms: C_22  and  N_24 
REMARK   10  A    between atoms: N_24  and  CA_25 
REMARK   11  A    between atoms: CA_25  and  CB_28 
REMARK   12  A    between atoms: CA_25  and  C_26 
REMARK   13  A    between atoms: CB_28  and  CG_29 
ROOT
ATOM      1  CA  MOL d          33.558  39.852  -7.548  0.00  0.00     0.092 C 
ENDROOT
BRANCH   1   2
ATOM      2  CM  MOL d          34.961  40.044  -6.941  0.00  0.00     0.120 C 
BRANCH   2   3
ATOM      3  P   MOL d          35.321  41.650  -6.318  0.00  0.00     0.138 P 
ATOM      4  O1P MOL d          34.057  42.432  -6.120  0.00  0.00    -0.666 OA
ATOM      5  O2P MOL d          36.170  42.432  -7.239  0.00  0.00    -0.666 OA
BRANCH   3   6
ATOM      6  CA  MOL d          36.203  41.189  -4.917  0.00  0.00     0.278 C 
BRANCH   6   7
ATOM      7  N   MOL d          36.883  39.894  -5.143  0.00  0.00    -0.065 N 
ATOM      8  H1  MOL d          37.332  39.597  -4.292  0.00  0.00     0.275 HD
ATOM      9  H2  MOL d          37.575  40.001  -5.869  0.00  0.00     0.275 HD
ATOM     10  H3  MOL d          36.205  39.203  -5.424  0.00  0.00     0.275 HD
ENDBRANCH   6   7
BRANCH   6  11
ATOM     11  CB  MOL d          37.283  41.961  -4.282  0.00  0.00     0.082 C 
BRANCH  11  12
ATOM     12  CG  MOL d          37.058  42.204  -2.793  0.00  0.00    -0.056 A 
ATOM     13  CD1 MOL d          36.852  43.524  -2.364  0.00  0.00     0.007 A 
ATOM     14  CE1 MOL d          36.664  43.697  -0.990  0.00  0.00     0.001 A 
ATOM     15  CZ  MOL d          36.656  42.639  -0.092  0.00  0.00     0.000 A 
ATOM     16  CE2 MOL d          36.869  41.370  -0.592  0.00  0.00     0.001 A 
ATOM     17  CD2 MOL d          37.094  41.166  -1.887  0.00  0.00     0.007 A 
ENDBRANCH  11  12
ENDBRANCH   6  11
ENDBRANCH   3   6
ENDBRANCH   2   3
ENDBRANCH   1   2
BRANCH   1  18
ATOM     18  CB  MOL d          33.655  39.916  -9.082  0.00  0.00     0.053 C 
BRANCH  18  19
ATOM     19  CG  MOL d          33.213  41.217  -9.717  0.00  0.00    -0.057 A 
ATOM     20  CD1 MOL d          32.562  42.192  -8.978  0.00  0.00     0.007 A 
ATOM     21  CE1 MOL d          32.151  43.377  -9.555  0.00  0.00     0.001 A 
ATOM     22  CZ  MOL d          32.407  43.589 -10.897  0.00  0.00     0.000 A 
ATOM     23  CE2 MOL d          33.055  42.622 -11.648  0.00  0.00     0.001 A 
ATOM     24  CD2 MOL d          33.487  41.453 -11.054  0.00  0.00     0.007 A 
ENDBRANCH  18  19
ENDBRANCH   1  18
BRANCH   1  25
ATOM     25  C   MOL d          32.813  38.590  -7.094  0.00  0.00     0.223 C 
ATOM     26  O   MOL d          33.033  38.024  -6.028  0.00  0.00    -0.273 OA
ATOM     27  N   MOL d          31.894  38.172  -7.932  0.00  0.00    -0.346 N 
ATOM     28  H22 MOL d          31.789  38.766  -8.729  0.00  0.00     0.163 HD
BRANCH  27  29
ATOM     29  CA  MOL d          30.998  37.034  -7.950  0.00  0.00     0.189 C 
BRANCH  29  30
ATOM     30  CB  MOL d          30.007  37.260  -9.057  0.00  0.00     0.074 C 
BRANCH  30  31
ATOM     31  CG  MOL d          30.165  38.216 -10.193  0.00  0.00    -0.056 A 
ATOM     32  CD1 MOL d          29.555  39.454 -10.186  0.00  0.00     0.007 A 
ATOM     33  CE1 MOL d          29.706  40.365 -11.217  0.00  0.00     0.001 A 
ATOM     34  CZ  MOL d          30.499  40.016 -12.296  0.00  0.00     0.000 A 
ATOM     35  CE2 MOL d          31.116  38.775 -12.327  0.00  0.00     0.001 A 
ATOM     36  CD2 MOL d          30.957  37.882 -11.285  0.00  0.00     0.007 A 
ENDBRANCH  30  31
ENDBRANCH  29  30
BRANCH  29  37
ATOM     37  C   MOL d          31.848  35.782  -8.181  0.00  0.00     0.197 C 
ATOM     38  O   MOL d          31.703  34.825  -7.398  0.00  0.00    -0.646 OA
ATOM     39  OXT MOL d          32.630  35.767  -9.129  0.00  0.00    -0.646 OA
ENDBRANCH  29  37
ENDBRANCH  27  29
ENDBRANCH   1  25
TORSDOF 13
ENDMDL
MODEL 9
REMARK VINA RESULT:      -8.4      1.919      8.668
REMARK  13 active torsions:
REMARK  status: ('A' for Active; 'I' for Inactive)
REMARK    1  A    between atoms: CA_2  and  N_1 
REMARK    2  A    between atoms: P_3  and  CA_2 
REMARK    3  A    between atoms: CA_2  and  CB_6 
REMARK    4  A    between atoms: CM_13  and  P_3 
REMARK    5  A    between atoms: CB_6  and  CG_7 
REMARK    6  A    between atoms: CA_14  and  CM_13 
REMARK    7  A    between atoms: CA_14  and  CB_15 
REMARK    8  A    between atoms: C_22  and  CA_14 
REMARK    9  A    between atoms: CB_15  and  CG_16 
REMARK       I    between atoms: C_22  and  N_24 
REMARK   10  A    between atoms: N_24  and  CA_25 
REMARK   11  A    between atoms: CA_25  and  CB_28 
REMARK   12  A    between atoms: CA_25  and  C_26 
REMARK   13  A    between atoms: CB_28  and  CG_29 
ROOT
ATOM      1  CA  MOL d          33.873  39.655  -7.673  0.00  0.00     0.092 C 
ENDROOT
BRANCH   1   2
ATOM      2  CM  MOL d          35.110  39.948  -6.802  0.00  0.00     0.120 C 
BRANCH   2   3
ATOM      3  P   MOL d          35.298  41.611  -6.259  0.00  0.00     0.138 P 
ATOM      4  O1P MOL d          33.959  42.268  -6.105  0.00  0.00    -0.666 OA
ATOM      5  O2P MOL d          36.071  42.429  -7.216  0.00  0.00    -0.666 OA
BRANCH   3   6
ATOM      6  CA  MOL d          36.210  41.314  -4.834  0.00  0.00     0.278 C 
BRANCH   6   7
ATOM      7  N   MOL d          36.954  40.041  -4.959  0.00  0.00    -0.065 N 
ATOM      8  H1  MOL d          37.917  40.235  -5.187  0.00  0.00     0.275 HD
ATOM      9  H2  MOL d          36.543  39.482  -5.690  0.00  0.00     0.275 HD
ATOM     10  H3  MOL d          36.911  39.539  -4.086  0.00  0.00     0.275 HD
ENDBRANCH   6   7
BRANCH   6  11
ATOM     11  CB  MOL d          37.252  42.190  -4.275  0.00  0.00     0.082 C 
BRANCH  11  12
ATOM     12  CG  MOL d          37.092  42.443  -2.780  0.00  0.00    -0.056 A 
ATOM     13  CD1 MOL d          37.094  41.335  -1.920  0.00  0.00     0.007 A 
ATOM     14  CE1 MOL d          36.929  41.618  -0.560  0.00  0.00     0.001 A 
ATOM     15  CZ  MOL d          36.794  42.909  -0.071  0.00  0.00     0.000 A 
ATOM     16  CE2 MOL d          36.798  43.945  -0.982  0.00  0.00     0.001 A 
ATOM     17  CD2 MOL d          36.909  43.718  -2.287  0.00  0.00     0.007 A 
ENDBRANCH  11  12
ENDBRANCH   6  11
ENDBRANCH   3   6
ENDBRANCH   2   3
ENDBRANCH   1   2
BRANCH   1  18
ATOM     18  CB  MOL d          34.302  39.548  -9.146  0.00  0.00     0.053 C 
BRANCH  18  19
ATOM     19  CG  MOL d          33.635  40.514 -10.100  0.00  0.00    -0.057 A 
ATOM     20  CD1 MOL d          33.291  40.130 -11.387  0.00  0.00     0.007 A 
ATOM     21  CE1 MOL d          32.689  41.012 -12.263  0.00  0.00     0.001 A 
ATOM     22  CZ  MOL d          32.419  42.298 -11.835  0.00  0.00     0.000 A 
ATOM     23  CE2 MOL d          32.759  42.695 -10.552  0.00  0.00     0.001 A 
ATOM     24  CD2 MOL d          33.335  41.798  -9.675  0.00  0.00     0.007 A 
ENDBRANCH  18  19
ENDBRANCH   1  18
BRANCH   1  25
ATOM     25  C   MOL d          33.045  38.436  -7.249  0.00  0.00     0.223 C 
ATOM     26  O   MOL d          32.770  38.181  -6.080  0.00  0.00    -0.273 OA
ATOM     27  N   MOL d          32.627  37.690  -8.244  0.00  0.00    -0.346 N 
ATOM     28  H22 MOL d          32.880  38.053  -9.140  0.00  0.00     0.163 HD
BRANCH  27  29
ATOM     29  CA  MOL d          31.878  36.453  -8.324  0.00  0.00     0.189 C 
BRANCH  29  30
ATOM     30  CB  MOL d          30.419  36.806  -8.245  0.00  0.00     0.074 C 
BRANCH  30  31
ATOM     31  CG  MOL d          29.688  37.725  -9.166  0.00  0.00    -0.056 A 
ATOM     32  CD1 MOL d          30.254  38.903  -9.612  0.00  0.00     0.007 A 
ATOM     33  CE1 MOL d          29.605  39.758 -10.484  0.00  0.00     0.001 A 
ATOM     34  CZ  MOL d          28.338  39.418 -10.923  0.00  0.00     0.000 A 
ATOM     35  CE2 MOL d          27.747  38.242 -10.485  0.00  0.00     0.001 A 
ATOM     36  CD2 MOL d          28.415  37.399  -9.618  0.00  0.00     0.007 A 
ENDBRANCH  30  31
ENDBRANCH  29  30
BRANCH  29  37
ATOM     37  C   MOL d          32.239  35.781  -9.651  0.00  0.00     0.197 C 
ATOM     38  O   MOL d          31.811  34.631  -9.858  0.00  0.00    -0.646 OA
ATOM     39  OXT MOL d          32.927  36.402 -10.458  0.00  0.00    -0.646 OA
ENDBRANCH  29  37
ENDBRANCH  27  29
ENDBRANCH   1  25
TORSDOF 13
ENDMDL
MODEL 10
REMARK VINA RESULT:      -8.3      5.112      9.007
REMARK  13 active torsions:
REMARK  status: ('A' for Active; 'I' for Inactive)
REMARK    1  A    between atoms: CA_2  and  N_1 
REMARK    2  A    between atoms: P_3  and  CA_2 
REMARK    3  A    between atoms: CA_2  and  CB_6 
REMARK    4  A    between atoms: CM_13  and  P_3 
REMARK    5  A    between atoms: CB_6  and  CG_7 
REMARK    6  A    between atoms: CA_14  and  CM_13 
REMARK    7  A    between atoms: CA_14  and  CB_15 
REMARK    8  A    between atoms: C_22  and  CA_14 
REMARK    9  A    between atoms: CB_15  and  CG_16 
REMARK       I    between atoms: C_22  and  N_24 
REMARK   10  A    between atoms: N_24  and  CA_25 
REMARK   11  A    between atoms: CA_25  and  CB_28 
REMARK   12  A    between atoms: CA_25  and  C_26 
REMARK   13  A    between atoms: CB_28  and  CG_29 
ROOT
ATOM      1  CA  MOL d          39.265  38.399  -3.741  0.00  0.00     0.092 C 
ENDROOT
BRANCH   1   2
ATOM      2  CM  MOL d          38.888  37.966  -5.172  0.00  0.00     0.120 C 
BRANCH   2   3
ATOM      3  P   MOL d          38.651  36.241  -5.421  0.00  0.00     0.138 P 
ATOM      4  O1P MOL d          37.307  35.978  -6.031  0.00  0.00    -0.666 OA
ATOM      5  O2P MOL d          38.705  35.479  -4.157  0.00  0.00    -0.666 OA
BRANCH   3   6
ATOM      6  CA  MOL d          40.040  35.927  -6.383  0.00  0.00     0.278 C 
BRANCH   6   7
ATOM      7  N   MOL d          39.646  35.704  -7.792  0.00  0.00    -0.065 N 
ATOM      8  H1  MOL d          39.830  34.746  -8.045  0.00  0.00     0.275 HD
ATOM      9  H2  MOL d          40.177  36.318  -8.390  0.00  0.00     0.275 HD
ATOM     10  H3  MOL d          38.663  35.897  -7.901  0.00  0.00     0.275 HD
ENDBRANCH   6   7
BRANCH   6  11
ATOM     11  CB  MOL d          41.192  36.825  -6.556  0.00  0.00     0.082 C 
BRANCH  11  12
ATOM     12  CG  MOL d          42.519  36.191  -6.153  0.00  0.00    -0.056 A 
ATOM     13  CD1 MOL d          42.488  34.927  -5.546  0.00  0.00     0.007 A 
ATOM     14  CE1 MOL d          43.728  34.394  -5.181  0.00  0.00     0.001 A 
ATOM     15  CZ  MOL d          44.927  35.049  -5.418  0.00  0.00     0.000 A 
ATOM     16  CE2 MOL d          44.874  36.291  -6.016  0.00  0.00     0.001 A 
ATOM     17  CD2 MOL d          43.714  36.854  -6.340  0.00  0.00     0.007 A 
ENDBRANCH  11  12
ENDBRANCH   6  11
ENDBRANCH   3   6
ENDBRANCH   2   3
ENDBRANCH   1   2
BRANCH   1  18
ATOM     18  CB  MOL d          40.629  39.110  -3.767  0.00  0.00     0.053 C 
BRANCH  18  19
ATOM     19  CG  MOL d          41.797  38.315  -3.228  0.00  0.00    -0.057 A 
ATOM     20  CD1 MOL d          43.091  38.811  -3.286  0.00  0.00     0.007 A 
ATOM     21  CE1 MOL d          44.161  38.086  -2.802  0.00  0.00     0.001 A 
ATOM     22  CZ  MOL d          43.927  36.844  -2.242  0.00  0.00     0.000 A 
ATOM     23  CE2 MOL d          42.639  36.336  -2.180  0.00  0.00     0.001 A 
ATOM     24  CD2 MOL d          41.573  37.081  -2.640  0.00  0.00     0.007 A 
ENDBRANCH  18  19
ENDBRANCH   1  18
BRANCH   1  25
ATOM     25  C   MOL d          38.213  39.246  -3.013  0.00  0.00     0.223 C 
ATOM     26  O   MOL d          37.877  39.048  -1.849  0.00  0.00    -0.273 OA
ATOM     27  N   MOL d          37.713  40.224  -3.729  0.00  0.00    -0.346 N 
ATOM     28  H22 MOL d          38.124  40.296  -4.637  0.00  0.00     0.163 HD
BRANCH  27  29
ATOM     29  CA  MOL d          36.692  41.222  -3.487  0.00  0.00     0.189 C 
BRANCH  29  30
ATOM     30  CB  MOL d          37.360  42.399  -2.832  0.00  0.00     0.074 C 
BRANCH  30  31
ATOM     31  CG  MOL d          37.528  42.604  -1.363  0.00  0.00    -0.056 A 
ATOM     32  CD1 MOL d          38.342  43.599  -0.860  0.00  0.00     0.007 A 
ATOM     33  CE1 MOL d          38.495  43.823   0.497  0.00  0.00     0.001 A 
ATOM     34  CZ  MOL d          37.805  43.013   1.382  0.00  0.00     0.000 A 
ATOM     35  CE2 MOL d          36.986  42.004   0.900  0.00  0.00     0.001 A 
ATOM     36  CD2 MOL d          36.843  41.801  -0.459  0.00  0.00     0.007 A 
ENDBRANCH  30  31
ENDBRANCH  29  30
BRANCH  29  37
ATOM     37  C   MOL d          36.075  41.587  -4.840  0.00  0.00     0.197 C 
ATOM     38  O   MOL d          36.233  42.749  -5.259  0.00  0.00    -0.646 OA
ATOM     39  OXT MOL d          35.460  40.723  -5.460  0.00  0.00    -0.646 OA
ENDBRANCH  29  37
ENDBRANCH  27  29
ENDBRANCH   1  25
TORSDOF 13
ENDMDL
