MODEL 1
REMARK VINA RESULT:     -10.9      0.000      0.000
REMARK  5 active torsions:
REMARK  status: ('A' for Active; 'I' for Inactive)
REMARK    1  A    between atoms: N19_3  and  C23_4 
REMARK    2  A    between atoms: C23_4  and  C24_5 
REMARK    3  A    between atoms: C10_20  and  C7_21 
REMARK    4  A    between atoms: C4_24  and  C3_27 
REMARK    5  A    between atoms: C3_27  and  N1_28 
ROOT
ATOM      1  O21 FSN d          16.761 -12.825  22.546  0.00  0.00    -0.272 OA
ATOM      2  C20 FSN d          17.494 -12.580  21.605  0.00  0.00     0.234 C 
ATOM      3  N19 FSN d          18.631 -13.364  21.308  0.00  0.00    -0.283 N 
ATOM      4  C17 FSN d          19.188 -12.979  20.054  0.00  0.00     0.233 C 
ATOM      5  O18 FSN d          20.183 -13.474  19.547  0.00  0.00    -0.272 OA
ATOM      6  C16 FSN d          18.371 -11.912  19.482  0.00  0.00     0.124 C 
ATOM      7  C15 FSN d          17.371 -12.346  18.411  0.00  0.00     0.203 C 
ATOM      8  N11 FSN d          15.944 -12.583  18.927  0.00  0.00    -0.057 N 
ATOM      9  C12 FSN d          15.136 -12.189  17.737  0.00  0.00     0.236 C 
ATOM     10  C13 FSN d          16.088 -12.419  16.519  0.00  0.00     0.030 C 
ATOM     11  C14 FSN d          17.432 -11.868  17.017  0.00  0.00     0.036 C 
ATOM     12  C10 FSN d          15.973 -11.443  19.943  0.00  0.00     0.235 C 
ATOM     13  C22 FSN d          17.344 -11.514  20.590  0.00  0.00     0.129 C 
ATOM     14  H9  FSN d          15.724 -13.494  19.298  0.00  0.00     0.281 HD
ENDROOT
BRANCH  12  15
ATOM     15  C7  FSN d          14.759 -11.291  20.809  0.00  0.00    -0.027 A 
ATOM     16  C8  FSN d          13.972 -12.418  21.029  0.00  0.00     0.010 A 
ATOM     17  C9  FSN d          12.872 -12.343  21.872  0.00  0.00     0.016 A 
ATOM     18  C4  FSN d          12.568 -11.100  22.494  0.00  0.00     0.007 A 
ATOM     19  C5  FSN d          13.358  -9.965  22.279  0.00  0.00     0.016 A 
ATOM     20  C6  FSN d          14.467 -10.052  21.431  0.00  0.00     0.010 A 
BRANCH  18  21
ATOM     21  C3  FSN d          11.403 -11.039  23.361  0.00  0.00     0.102 C 
ATOM     22  N2  FSN d          10.601 -12.111  23.588  0.00  0.00    -0.385 N 
ATOM     23  H23 FSN d          10.811 -13.014  23.142  0.00  0.00     0.157 HD
ATOM     24  H24 FSN d           9.782 -12.019  24.207  0.00  0.00     0.157 HD
BRANCH  21  25
ATOM     25  N1  FSN d          11.043  -9.894  23.994  0.00  0.00    -0.385 N 
ATOM     26  H21 FSN d          10.048  -9.693  24.171  0.00  0.00     0.157 HD
ATOM     27  H22 FSN d          11.764  -9.224  24.297  0.00  0.00     0.157 HD
ENDBRANCH  21  25
ENDBRANCH  18  21
ENDBRANCH  12  15
BRANCH   3  28
ATOM     28  C23 FSN d          18.961 -14.548  22.100  0.00  0.00     0.173 C 
BRANCH  28  29
ATOM     29  C24 FSN d          19.865 -14.169  23.242  0.00  0.00    -0.040 A 
ATOM     30  C32 FSN d          19.312 -14.008  24.526  0.00  0.00     0.012 A 
ATOM     31  C31 FSN d          20.151 -13.691  25.594  0.00  0.00     0.043 A 
ATOM     32  C30 FSN d          21.521 -13.540  25.340  0.00  0.00     0.116 A 
ATOM     33  F29 FSN d          22.277 -13.254  26.415  0.00  0.00    -0.206 F 
ATOM     34  C26 FSN d          22.119 -13.675  24.079  0.00  0.00     0.043 A 
ATOM     35  C25 FSN d          21.251 -13.997  23.006  0.00  0.00     0.012 A 
ENDBRANCH  28  29
ENDBRANCH   3  28
TORSDOF 5
ENDMDL
MODEL 2
REMARK VINA RESULT:      -9.3      2.389      3.256
REMARK  5 active torsions:
REMARK  status: ('A' for Active; 'I' for Inactive)
REMARK    1  A    between atoms: N19_3  and  C23_4 
REMARK    2  A    between atoms: C23_4  and  C24_5 
REMARK    3  A    between atoms: C10_20  and  C7_21 
REMARK    4  A    between atoms: C4_24  and  C3_27 
REMARK    5  A    between atoms: C3_27  and  N1_28 
ROOT
ATOM      1  O21 FSN d          16.768 -12.714  22.476  0.00  0.00    -0.272 OA
ATOM      2  C20 FSN d          17.463 -12.493  21.500  0.00  0.00     0.234 C 
ATOM      3  N19 FSN d          18.602 -13.269  21.191  0.00  0.00    -0.283 N 
ATOM      4  C17 FSN d          19.108 -12.923  19.905  0.00  0.00     0.233 C 
ATOM      5  O18 FSN d          20.092 -13.420  19.381  0.00  0.00    -0.272 OA
ATOM      6  C16 FSN d          18.252 -11.891  19.325  0.00  0.00     0.124 C 
ATOM      7  C15 FSN d          17.222 -12.381  18.307  0.00  0.00     0.203 C 
ATOM      8  N11 FSN d          15.818 -12.621  18.883  0.00  0.00    -0.057 N 
ATOM      9  C12 FSN d          14.962 -12.285  17.709  0.00  0.00     0.236 C 
ATOM     10  C13 FSN d          15.874 -12.545  16.466  0.00  0.00     0.030 C 
ATOM     11  C14 FSN d          17.225 -11.954  16.895  0.00  0.00     0.036 C 
ATOM     12  C10 FSN d          15.864 -11.444  19.854  0.00  0.00     0.235 C 
ATOM     13  C22 FSN d          17.258 -11.468  20.453  0.00  0.00     0.129 C 
ATOM     14  H9  FSN d          15.629 -13.521  19.295  0.00  0.00     0.281 HD
ENDROOT
BRANCH  12  15
ATOM     15  C7  FSN d          14.679 -11.279  20.757  0.00  0.00    -0.027 A 
ATOM     16  C8  FSN d          13.908 -12.405  21.030  0.00  0.00     0.010 A 
ATOM     17  C9  FSN d          12.837 -12.318  21.908  0.00  0.00     0.016 A 
ATOM     18  C4  FSN d          12.546 -11.062  22.511  0.00  0.00     0.007 A 
ATOM     19  C5  FSN d          13.321  -9.928  22.243  0.00  0.00     0.016 A 
ATOM     20  C6  FSN d          14.401 -10.028  21.361  0.00  0.00     0.010 A 
BRANCH  18  21
ATOM     21  C3  FSN d          11.410 -10.989  23.416  0.00  0.00     0.102 C 
ATOM     22  N2  FSN d          11.052  -9.845  24.053  0.00  0.00    -0.385 N 
ATOM     23  H23 FSN d          11.590  -8.981  23.900  0.00  0.00     0.157 HD
ATOM     24  H24 FSN d          10.243  -9.841  24.690  0.00  0.00     0.157 HD
BRANCH  21  25
ATOM     25  N1  FSN d          10.639 -12.074  23.683  0.00  0.00    -0.385 N 
ATOM     26  H21 FSN d           9.612 -11.992  23.671  0.00  0.00     0.157 HD
ATOM     27  H22 FSN d          11.080 -12.979  23.897  0.00  0.00     0.157 HD
ENDBRANCH  21  25
ENDBRANCH  18  21
ENDBRANCH  12  15
BRANCH   3  28
ATOM     28  C23 FSN d          18.981 -14.417  22.014  0.00  0.00     0.173 C 
BRANCH  28  29
ATOM     29  C24 FSN d          18.385 -15.677  21.449  0.00  0.00    -0.040 A 
ATOM     30  C32 FSN d          17.182 -15.597  20.722  0.00  0.00     0.012 A 
ATOM     31  C31 FSN d          16.643 -16.758  20.167  0.00  0.00     0.043 A 
ATOM     32  C30 FSN d          17.326 -17.966  20.361  0.00  0.00     0.116 A 
ATOM     33  F29 FSN d          16.766 -19.043  19.783  0.00  0.00    -0.206 F 
ATOM     34  C26 FSN d          18.518 -18.102  21.087  0.00  0.00     0.043 A 
ATOM     35  C25 FSN d          19.051 -16.912  21.645  0.00  0.00     0.012 A 
ENDBRANCH  28  29
ENDBRANCH   3  28
TORSDOF 5
ENDMDL
MODEL 3
REMARK VINA RESULT:      -9.0      1.906      2.635
REMARK  5 active torsions:
REMARK  status: ('A' for Active; 'I' for Inactive)
REMARK    1  A    between atoms: N19_3  and  C23_4 
REMARK    2  A    between atoms: C23_4  and  C24_5 
REMARK    3  A    between atoms: C10_20  and  C7_21 
REMARK    4  A    between atoms: C4_24  and  C3_27 
REMARK    5  A    between atoms: C3_27  and  N1_28 
ROOT
ATOM      1  O21 FSN d          16.798 -11.065  21.330  0.00  0.00    -0.272 OA
ATOM      2  C20 FSN d          17.051 -11.311  20.164  0.00  0.00     0.234 C 
ATOM      3  N19 FSN d          18.360 -11.603  19.720  0.00  0.00    -0.283 N 
ATOM      4  C17 FSN d          18.340 -12.043  18.365  0.00  0.00     0.233 C 
ATOM      5  O18 FSN d          19.325 -12.352  17.713  0.00  0.00    -0.272 OA
ATOM      6  C16 FSN d          16.956 -12.069  17.898  0.00  0.00     0.124 C 
ATOM      7  C15 FSN d          16.284 -13.441  17.896  0.00  0.00     0.203 C 
ATOM      8  N11 FSN d          15.424 -13.733  19.135  0.00  0.00    -0.057 N 
ATOM      9  C12 FSN d          14.364 -14.606  18.553  0.00  0.00     0.236 C 
ATOM     10  C13 FSN d          15.035 -15.263  17.303  0.00  0.00     0.030 C 
ATOM     11  C14 FSN d          15.802 -14.096  16.666  0.00  0.00     0.036 C 
ATOM     12  C10 FSN d          14.906 -12.305  19.283  0.00  0.00     0.235 C 
ATOM     13  C22 FSN d          16.105 -11.411  19.031  0.00  0.00     0.129 C 
ATOM     14  H9  FSN d          15.884 -14.118  19.945  0.00  0.00     0.281 HD
ENDROOT
BRANCH  12  15
ATOM     15  C7  FSN d          14.025 -12.035  20.466  0.00  0.00    -0.027 A 
ATOM     16  C8  FSN d          13.342 -10.824  20.505  0.00  0.00     0.010 A 
ATOM     17  C9  FSN d          12.466 -10.553  21.548  0.00  0.00     0.016 A 
ATOM     18  C4  FSN d          12.292 -11.530  22.568  0.00  0.00     0.007 A 
ATOM     19  C5  FSN d          12.973 -12.752  22.530  0.00  0.00     0.016 A 
ATOM     20  C6  FSN d          13.848 -13.017  21.473  0.00  0.00     0.010 A 
BRANCH  18  21
ATOM     21  C3  FSN d          11.382 -11.220  23.659  0.00  0.00     0.102 C 
ATOM     22  N2  FSN d          10.889 -12.168  24.495  0.00  0.00    -0.385 N 
ATOM     23  H23 FSN d          11.161 -13.154  24.373  0.00  0.00     0.157 HD
ATOM     24  H24 FSN d          10.243 -11.902  25.252  0.00  0.00     0.157 HD
BRANCH  21  25
ATOM     25  N1  FSN d          10.965  -9.951  23.902  0.00  0.00    -0.385 N 
ATOM     26  H21 FSN d          10.062  -9.625  23.529  0.00  0.00     0.157 HD
ATOM     27  H22 FSN d          11.552  -9.313  24.459  0.00  0.00     0.157 HD
ENDBRANCH  21  25
ENDBRANCH  18  21
ENDBRANCH  12  15
BRANCH   3  28
ATOM     28  C23 FSN d          19.480 -11.668  20.658  0.00  0.00     0.173 C 
BRANCH  28  29
ATOM     29  C24 FSN d          19.574 -13.046  21.255  0.00  0.00    -0.040 A 
ATOM     30  C32 FSN d          20.209 -14.066  20.521  0.00  0.00     0.012 A 
ATOM     31  C31 FSN d          20.329 -15.336  21.084  0.00  0.00     0.043 A 
ATOM     32  C30 FSN d          19.805 -15.546  22.367  0.00  0.00     0.116 A 
ATOM     33  F29 FSN d          19.971 -16.786  22.861  0.00  0.00    -0.206 F 
ATOM     34  C26 FSN d          19.152 -14.570  23.133  0.00  0.00     0.043 A 
ATOM     35  C25 FSN d          19.039 -13.285  22.544  0.00  0.00     0.012 A 
ENDBRANCH  28  29
ENDBRANCH   3  28
TORSDOF 5
ENDMDL
MODEL 4
REMARK VINA RESULT:      -8.9      2.097      2.617
REMARK  5 active torsions:
REMARK  status: ('A' for Active; 'I' for Inactive)
REMARK    1  A    between atoms: N19_3  and  C23_4 
REMARK    2  A    between atoms: C23_4  and  C24_5 
REMARK    3  A    between atoms: C10_20  and  C7_21 
REMARK    4  A    between atoms: C4_24  and  C3_27 
REMARK    5  A    between atoms: C3_27  and  N1_28 
ROOT
ATOM      1  O21 FSN d          16.172 -13.106  22.826  0.00  0.00    -0.272 OA
ATOM      2  C20 FSN d          16.361 -13.721  21.792  0.00  0.00     0.234 C 
ATOM      3  N19 FSN d          17.064 -14.946  21.760  0.00  0.00    -0.283 N 
ATOM      4  C17 FSN d          16.969 -15.542  20.469  0.00  0.00     0.233 C 
ATOM      5  O18 FSN d          17.489 -16.598  20.144  0.00  0.00    -0.272 OA
ATOM      6  C16 FSN d          16.146 -14.689  19.616  0.00  0.00     0.124 C 
ATOM      7  C15 FSN d          14.692 -15.128  19.446  0.00  0.00     0.203 C 
ATOM      8  N11 FSN d          13.698 -14.425  20.383  0.00  0.00    -0.057 N 
ATOM      9  C12 FSN d          12.473 -14.392  19.534  0.00  0.00     0.236 C 
ATOM     10  C13 FSN d          12.640 -15.597  18.552  0.00  0.00     0.030 C 
ATOM     11  C14 FSN d          14.118 -15.511  18.143  0.00  0.00     0.036 C 
ATOM     12  C10 FSN d          14.403 -13.071  20.340  0.00  0.00     0.235 C 
ATOM     13  C22 FSN d          15.885 -13.383  20.433  0.00  0.00     0.129 C 
ATOM     14  H9  FSN d          13.561 -14.817  21.300  0.00  0.00     0.281 HD
ENDROOT
BRANCH  12  15
ATOM     15  C7  FSN d          13.825 -11.991  21.205  0.00  0.00    -0.027 A 
ATOM     16  C8  FSN d          12.834 -12.348  22.115  0.00  0.00     0.010 A 
ATOM     17  C9  FSN d          12.310 -11.397  22.980  0.00  0.00     0.016 A 
ATOM     18  C4  FSN d          12.800 -10.063  22.910  0.00  0.00     0.007 A 
ATOM     19  C5  FSN d          13.799  -9.701  21.999  0.00  0.00     0.016 A 
ATOM     20  C6  FSN d          14.323 -10.667  21.136  0.00  0.00     0.010 A 
BRANCH  18  21
ATOM     21  C3  FSN d          12.226  -9.079  23.814  0.00  0.00     0.102 C 
ATOM     22  N2  FSN d          12.933  -8.025  24.295  0.00  0.00    -0.385 N 
ATOM     23  H23 FSN d          13.915  -7.894  24.016  0.00  0.00     0.157 HD
ATOM     24  H24 FSN d          12.486  -7.356  24.937  0.00  0.00     0.157 HD
BRANCH  21  25
ATOM     25  N1  FSN d          10.940  -9.165  24.239  0.00  0.00    -0.385 N 
ATOM     26  H21 FSN d          10.550  -8.435  24.853  0.00  0.00     0.157 HD
ATOM     27  H22 FSN d          10.353  -9.959  23.947  0.00  0.00     0.157 HD
ENDBRANCH  21  25
ENDBRANCH  18  21
ENDBRANCH  12  15
BRANCH   3  28
ATOM     28  C23 FSN d          17.565 -15.563  22.988  0.00  0.00     0.173 C 
BRANCH  28  29
ATOM     29  C24 FSN d          18.803 -14.849  23.456  0.00  0.00    -0.040 A 
ATOM     30  C32 FSN d          18.851 -14.359  24.775  0.00  0.00     0.012 A 
ATOM     31  C31 FSN d          20.010 -13.726  25.225  0.00  0.00     0.043 A 
ATOM     32  C30 FSN d          21.086 -13.600  24.336  0.00  0.00     0.116 A 
ATOM     33  F29 FSN d          22.180 -13.000  24.837  0.00  0.00    -0.206 F 
ATOM     34  C26 FSN d          21.084 -14.058  23.010  0.00  0.00     0.043 A 
ATOM     35  C25 FSN d          19.898 -14.698  22.570  0.00  0.00     0.012 A 
ENDBRANCH  28  29
ENDBRANCH   3  28
TORSDOF 5
ENDMDL
MODEL 5
REMARK VINA RESULT:      -8.6      2.836      4.448
REMARK  5 active torsions:
REMARK  status: ('A' for Active; 'I' for Inactive)
REMARK    1  A    between atoms: N19_3  and  C23_4 
REMARK    2  A    between atoms: C23_4  and  C24_5 
REMARK    3  A    between atoms: C10_20  and  C7_21 
REMARK    4  A    between atoms: C4_24  and  C3_27 
REMARK    5  A    between atoms: C3_27  and  N1_28 
ROOT
ATOM      1  O21 FSN d          14.992 -10.686  19.255  0.00  0.00    -0.272 OA
ATOM      2  C20 FSN d          14.809 -11.775  18.740  0.00  0.00     0.234 C 
ATOM      3  N19 FSN d          15.753 -12.368  17.871  0.00  0.00    -0.283 N 
ATOM      4  C17 FSN d          15.381 -13.711  17.573  0.00  0.00     0.233 C 
ATOM      5  O18 FSN d          16.001 -14.463  16.838  0.00  0.00    -0.272 OA
ATOM      6  C16 FSN d          14.153 -14.031  18.296  0.00  0.00     0.124 C 
ATOM      7  C15 FSN d          14.334 -14.829  19.587  0.00  0.00     0.203 C 
ATOM      8  N11 FSN d          14.361 -13.978  20.866  0.00  0.00    -0.057 N 
ATOM      9  C12 FSN d          13.752 -14.917  21.851  0.00  0.00     0.236 C 
ATOM     10  C13 FSN d          14.054 -16.341  21.281  0.00  0.00     0.030 C 
ATOM     11  C14 FSN d          13.776 -16.180  19.779  0.00  0.00     0.036 C 
ATOM     12  C10 FSN d          13.317 -12.973  20.384  0.00  0.00     0.235 C 
ATOM     13  C22 FSN d          13.665 -12.691  18.934  0.00  0.00     0.129 C 
ATOM     14  H9  FSN d          15.245 -13.587  21.151  0.00  0.00     0.281 HD
ENDROOT
BRANCH  12  15
ATOM     15  C7  FSN d          13.022 -11.826  21.304  0.00  0.00    -0.027 A 
ATOM     16  C8  FSN d          11.845 -11.874  22.045  0.00  0.00     0.010 A 
ATOM     17  C9  FSN d          11.557 -10.867  22.956  0.00  0.00     0.016 A 
ATOM     18  C4  FSN d          12.479  -9.795  23.108  0.00  0.00     0.007 A 
ATOM     19  C5  FSN d          13.666  -9.745  22.368  0.00  0.00     0.016 A 
ATOM     20  C6  FSN d          13.950 -10.767  21.457  0.00  0.00     0.010 A 
BRANCH  18  21
ATOM     21  C3  FSN d          12.150  -8.743  24.056  0.00  0.00     0.102 C 
ATOM     22  N2  FSN d          13.073  -7.868  24.532  0.00  0.00    -0.385 N 
ATOM     23  H23 FSN d          14.051  -7.931  24.217  0.00  0.00     0.157 HD
ATOM     24  H24 FSN d          12.795  -7.142  25.206  0.00  0.00     0.157 HD
BRANCH  21  25
ATOM     25  N1  FSN d          10.889  -8.578  24.530  0.00  0.00    -0.385 N 
ATOM     26  H21 FSN d          10.100  -9.057  24.073  0.00  0.00     0.157 HD
ATOM     27  H22 FSN d          10.720  -7.975  25.348  0.00  0.00     0.157 HD
ENDBRANCH  21  25
ENDBRANCH  18  21
ENDBRANCH  12  15
BRANCH   3  28
ATOM     28  C23 FSN d          17.028 -11.714  17.580  0.00  0.00     0.173 C 
BRANCH  28  29
ATOM     29  C24 FSN d          18.088 -12.206  18.528  0.00  0.00    -0.040 A 
ATOM     30  C32 FSN d          19.439 -12.139  18.136  0.00  0.00     0.012 A 
ATOM     31  C31 FSN d          20.427 -12.562  19.025  0.00  0.00     0.043 A 
ATOM     32  C30 FSN d          20.030 -13.044  20.279  0.00  0.00     0.116 A 
ATOM     33  F29 FSN d          21.032 -13.417  21.096  0.00  0.00    -0.206 F 
ATOM     34  C26 FSN d          18.700 -13.145  20.712  0.00  0.00     0.043 A 
ATOM     35  C25 FSN d          17.709 -12.711  19.796  0.00  0.00     0.012 A 
ENDBRANCH  28  29
ENDBRANCH   3  28
TORSDOF 5
ENDMDL
MODEL 6
REMARK VINA RESULT:      -8.5      2.958      3.610
REMARK  5 active torsions:
REMARK  status: ('A' for Active; 'I' for Inactive)
REMARK    1  A    between atoms: N19_3  and  C23_4 
REMARK    2  A    between atoms: C23_4  and  C24_5 
REMARK    3  A    between atoms: C10_20  and  C7_21 
REMARK    4  A    between atoms: C4_24  and  C3_27 
REMARK    5  A    between atoms: C3_27  and  N1_28 
ROOT
ATOM      1  O21 FSN d          16.331 -14.810  20.605  0.00  0.00    -0.272 OA
ATOM      2  C20 FSN d          16.886 -13.784  20.253  0.00  0.00     0.234 C 
ATOM      3  N19 FSN d          18.272 -13.574  20.432  0.00  0.00    -0.283 N 
ATOM      4  C17 FSN d          18.688 -12.389  19.759  0.00  0.00     0.233 C 
ATOM      5  O18 FSN d          19.828 -11.951  19.751  0.00  0.00    -0.272 OA
ATOM      6  C16 FSN d          17.535 -11.802  19.083  0.00  0.00     0.124 C 
ATOM      7  C15 FSN d          17.427 -12.091  17.586  0.00  0.00     0.203 C 
ATOM      8  N11 FSN d          16.503 -13.266  17.227  0.00  0.00    -0.057 N 
ATOM      9  C12 FSN d          15.978 -12.826  15.902  0.00  0.00     0.236 C 
ATOM     10  C13 FSN d          17.080 -11.873  15.335  0.00  0.00     0.030 C 
ATOM     11  C14 FSN d          17.478 -11.035  16.559  0.00  0.00     0.036 C 
ATOM     12  C10 FSN d          15.479 -12.975  18.321  0.00  0.00     0.235 C 
ATOM     13  C22 FSN d          16.292 -12.624  19.553  0.00  0.00     0.129 C 
ATOM     14  H9  FSN d          16.899 -14.192  17.233  0.00  0.00     0.281 HD
ENDROOT
BRANCH  12  15
ATOM     15  C7  FSN d          14.342 -13.944  18.443  0.00  0.00    -0.027 A 
ATOM     16  C8  FSN d          14.403 -15.116  17.695  0.00  0.00     0.010 A 
ATOM     17  C9  FSN d          13.405 -16.073  17.819  0.00  0.00     0.016 A 
ATOM     18  C4  FSN d          12.327 -15.827  18.715  0.00  0.00     0.007 A 
ATOM     19  C5  FSN d          12.264 -14.652  19.473  0.00  0.00     0.016 A 
ATOM     20  C6  FSN d          13.277 -13.697  19.344  0.00  0.00     0.010 A 
BRANCH  18  21
ATOM     21  C3  FSN d          11.285 -16.835  18.818  0.00  0.00     0.102 C 
ATOM     22  N2  FSN d          10.145 -16.790  18.082  0.00  0.00    -0.385 N 
ATOM     23  H23 FSN d           9.995 -16.023  17.413  0.00  0.00     0.157 HD
ATOM     24  H24 FSN d           9.431 -17.524  18.193  0.00  0.00     0.157 HD
BRANCH  21  25
ATOM     25  N1  FSN d          11.390 -17.885  19.672  0.00  0.00    -0.385 N 
ATOM     26  H21 FSN d          11.215 -17.751  20.678  0.00  0.00     0.157 HD
ATOM     27  H22 FSN d          11.644 -18.817  19.313  0.00  0.00     0.157 HD
ENDBRANCH  21  25
ENDBRANCH  18  21
ENDBRANCH  12  15
BRANCH   3  28
ATOM     28  C23 FSN d          19.124 -14.609  21.016  0.00  0.00     0.173 C 
BRANCH  28  29
ATOM     29  C24 FSN d          19.436 -14.273  22.449  0.00  0.00    -0.040 A 
ATOM     30  C32 FSN d          18.432 -14.433  23.423  0.00  0.00     0.012 A 
ATOM     31  C31 FSN d          18.727 -14.155  24.757  0.00  0.00     0.043 A 
ATOM     32  C30 FSN d          20.021 -13.721  25.075  0.00  0.00     0.116 A 
ATOM     33  F29 FSN d          20.246 -13.490  26.381  0.00  0.00    -0.206 F 
ATOM     34  C26 FSN d          21.052 -13.533  24.143  0.00  0.00     0.043 A 
ATOM     35  C25 FSN d          20.734 -13.820  22.791  0.00  0.00     0.012 A 
ENDBRANCH  28  29
ENDBRANCH   3  28
TORSDOF 5
ENDMDL
MODEL 7
REMARK VINA RESULT:      -8.2      3.438      7.543
REMARK  5 active torsions:
REMARK  status: ('A' for Active; 'I' for Inactive)
REMARK    1  A    between atoms: N19_3  and  C23_4 
REMARK    2  A    between atoms: C23_4  and  C24_5 
REMARK    3  A    between atoms: C10_20  and  C7_21 
REMARK    4  A    between atoms: C4_24  and  C3_27 
REMARK    5  A    between atoms: C3_27  and  N1_28 
ROOT
ATOM      1  O21 FSN d          17.203 -11.819  21.475  0.00  0.00    -0.272 OA
ATOM      2  C20 FSN d          16.219 -12.516  21.300  0.00  0.00     0.234 C 
ATOM      3  N19 FSN d          15.228 -12.199  20.345  0.00  0.00    -0.283 N 
ATOM      4  C17 FSN d          14.302 -13.274  20.212  0.00  0.00     0.233 C 
ATOM      5  O18 FSN d          13.332 -13.277  19.470  0.00  0.00    -0.272 OA
ATOM      6  C16 FSN d          14.712 -14.361  21.098  0.00  0.00     0.124 C 
ATOM      7  C15 FSN d          15.470 -15.508  20.431  0.00  0.00     0.203 C 
ATOM      8  N11 FSN d          17.000 -15.412  20.539  0.00  0.00    -0.057 N 
ATOM      9  C12 FSN d          17.379 -16.853  20.582  0.00  0.00     0.236 C 
ATOM     10  C13 FSN d          16.214 -17.591  19.846  0.00  0.00     0.030 C 
ATOM     11  C14 FSN d          14.960 -16.891  20.389  0.00  0.00     0.036 C 
ATOM     12  C10 FSN d          17.001 -14.825  21.949  0.00  0.00     0.235 C 
ATOM     13  C22 FSN d          15.886 -13.797  21.960  0.00  0.00     0.129 C 
ATOM     14  H9  FSN d          17.487 -14.872  19.841  0.00  0.00     0.281 HD
ENDROOT
BRANCH  12  15
ATOM     15  C7  FSN d          18.340 -14.464  22.519  0.00  0.00    -0.027 A 
ATOM     16  C8  FSN d          18.440 -14.314  23.898  0.00  0.00     0.010 A 
ATOM     17  C9  FSN d          19.671 -14.039  24.480  0.00  0.00     0.016 A 
ATOM     18  C4  FSN d          20.812 -13.911  23.640  0.00  0.00     0.007 A 
ATOM     19  C5  FSN d          20.717 -14.066  22.253  0.00  0.00     0.016 A 
ATOM     20  C6  FSN d          19.474 -14.346  21.678  0.00  0.00     0.010 A 
BRANCH  18  21
ATOM     21  C3  FSN d          22.088 -13.608  24.268  0.00  0.00     0.102 C 
ATOM     22  N2  FSN d          23.271 -13.698  23.608  0.00  0.00    -0.385 N 
ATOM     23  H23 FSN d          23.287 -13.985  22.619  0.00  0.00     0.157 HD
ATOM     24  H24 FSN d          24.151 -13.479  24.095  0.00  0.00     0.157 HD
BRANCH  21  25
ATOM     25  N1  FSN d          22.170 -13.221  25.567  0.00  0.00    -0.385 N 
ATOM     26  H21 FSN d          22.490 -12.271  25.802  0.00  0.00     0.157 HD
ATOM     27  H22 FSN d          21.913 -13.878  26.317  0.00  0.00     0.157 HD
ENDBRANCH  21  25
ENDBRANCH  18  21
ENDBRANCH  12  15
BRANCH   3  28
ATOM     28  C23 FSN d          15.358 -11.028  19.479  0.00  0.00     0.173 C 
BRANCH  28  29
ATOM     29  C24 FSN d          15.861 -11.442  18.124  0.00  0.00    -0.040 A 
ATOM     30  C32 FSN d          14.955 -11.505  17.048  0.00  0.00     0.012 A 
ATOM     31  C31 FSN d          15.424 -11.855  15.782  0.00  0.00     0.043 A 
ATOM     32  C30 FSN d          16.788 -12.137  15.633  0.00  0.00     0.116 A 
ATOM     33  F29 FSN d          17.179 -12.447  14.385  0.00  0.00    -0.206 F 
ATOM     34  C26 FSN d          17.729 -12.102  16.673  0.00  0.00     0.043 A 
ATOM     35  C25 FSN d          17.235 -11.745  17.953  0.00  0.00     0.012 A 
ENDBRANCH  28  29
ENDBRANCH   3  28
TORSDOF 5
ENDMDL
MODEL 8
REMARK VINA RESULT:      -8.1      4.404      6.999
REMARK  5 active torsions:
REMARK  status: ('A' for Active; 'I' for Inactive)
REMARK    1  A    between atoms: N19_3  and  C23_4 
REMARK    2  A    between atoms: C23_4  and  C24_5 
REMARK    3  A    between atoms: C10_20  and  C7_21 
REMARK    4  A    between atoms: C4_24  and  C3_27 
REMARK    5  A    between atoms: C3_27  and  N1_28 
ROOT
ATOM      1  O21 FSN d          13.267 -13.777  18.775  0.00  0.00    -0.272 OA
ATOM      2  C20 FSN d          14.390 -13.328  18.912  0.00  0.00     0.234 C 
ATOM      3  N19 FSN d          14.634 -11.953  19.125  0.00  0.00    -0.283 N 
ATOM      4  C17 FSN d          16.005 -11.733  19.446  0.00  0.00     0.233 C 
ATOM      5  O18 FSN d          16.507 -10.642  19.668  0.00  0.00    -0.272 OA
ATOM      6  C16 FSN d          16.694 -13.020  19.473  0.00  0.00     0.124 C 
ATOM      7  C15 FSN d          16.918 -13.623  20.859  0.00  0.00     0.203 C 
ATOM      8  N11 FSN d          15.866 -14.658  21.284  0.00  0.00    -0.057 N 
ATOM      9  C12 FSN d          16.684 -15.570  22.134  0.00  0.00     0.236 C 
ATOM     10  C13 FSN d          17.854 -14.678  22.660  0.00  0.00     0.030 C 
ATOM     11  C14 FSN d          18.260 -13.869  21.420  0.00  0.00     0.036 C 
ATOM     12  C10 FSN d          15.691 -15.256  19.890  0.00  0.00     0.235 C 
ATOM     13  C22 FSN d          15.669 -14.071  18.942  0.00  0.00     0.129 C 
ATOM     14  H9  FSN d          15.025 -14.320  21.723  0.00  0.00     0.281 HD
ENDROOT
BRANCH  12  15
ATOM     15  C7  FSN d          14.653 -16.328  19.750  0.00  0.00    -0.027 A 
ATOM     16  C8  FSN d          13.725 -16.472  20.777  0.00  0.00     0.010 A 
ATOM     17  C9  FSN d          12.707 -17.409  20.667  0.00  0.00     0.016 A 
ATOM     18  C4  FSN d          12.639 -18.214  19.496  0.00  0.00     0.007 A 
ATOM     19  C5  FSN d          13.567 -18.070  18.459  0.00  0.00     0.016 A 
ATOM     20  C6  FSN d          14.586 -17.120  18.577  0.00  0.00     0.010 A 
BRANCH  18  21
ATOM     21  C3  FSN d          11.574 -19.200  19.408  0.00  0.00     0.102 C 
ATOM     22  N2  FSN d          10.657 -19.203  18.408  0.00  0.00    -0.385 N 
ATOM     23  H23 FSN d          10.702 -18.489  17.667  0.00  0.00     0.157 HD
ATOM     24  H24 FSN d           9.917 -19.918  18.389  0.00  0.00     0.157 HD
BRANCH  21  25
ATOM     25  N1  FSN d          11.431 -20.181  20.336  0.00  0.00    -0.385 N 
ATOM     26  H21 FSN d          12.220 -20.810  20.547  0.00  0.00     0.157 HD
ATOM     27  H22 FSN d          10.535 -20.297  20.829  0.00  0.00     0.157 HD
ENDBRANCH  21  25
ENDBRANCH  18  21
ENDBRANCH  12  15
BRANCH   3  28
ATOM     28  C23 FSN d          13.532 -10.998  19.238  0.00  0.00     0.173 C 
BRANCH  28  29
ATOM     29  C24 FSN d          13.089 -10.888  20.671  0.00  0.00    -0.040 A 
ATOM     30  C32 FSN d          13.486  -9.766  21.424  0.00  0.00     0.012 A 
ATOM     31  C31 FSN d          13.049  -9.643  22.743  0.00  0.00     0.043 A 
ATOM     32  C30 FSN d          12.229 -10.651  23.269  0.00  0.00     0.116 A 
ATOM     33  F29 FSN d          11.826 -10.462  24.538  0.00  0.00    -0.206 F 
ATOM     34  C26 FSN d          11.817 -11.792  22.566  0.00  0.00     0.043 A 
ATOM     35  C25 FSN d          12.271 -11.902  21.228  0.00  0.00     0.012 A 
ENDBRANCH  28  29
ENDBRANCH   3  28
TORSDOF 5
ENDMDL
MODEL 9
REMARK VINA RESULT:      -8.1      3.561      4.490
REMARK  5 active torsions:
REMARK  status: ('A' for Active; 'I' for Inactive)
REMARK    1  A    between atoms: N19_3  and  C23_4 
REMARK    2  A    between atoms: C23_4  and  C24_5 
REMARK    3  A    between atoms: C10_20  and  C7_21 
REMARK    4  A    between atoms: C4_24  and  C3_27 
REMARK    5  A    between atoms: C3_27  and  N1_28 
ROOT
ATOM      1  O21 FSN d          16.198 -15.971  21.765  0.00  0.00    -0.272 OA
ATOM      2  C20 FSN d          16.318 -14.765  21.643  0.00  0.00     0.234 C 
ATOM      3  N19 FSN d          17.554 -14.106  21.827  0.00  0.00    -0.283 N 
ATOM      4  C17 FSN d          17.455 -12.741  21.432  0.00  0.00     0.233 C 
ATOM      5  O18 FSN d          18.362 -11.925  21.493  0.00  0.00    -0.272 OA
ATOM      6  C16 FSN d          16.103 -12.490  20.940  0.00  0.00     0.124 C 
ATOM      7  C15 FSN d          15.941 -12.487  19.421  0.00  0.00     0.203 C 
ATOM      8  N11 FSN d          15.452 -13.818  18.828  0.00  0.00    -0.057 N 
ATOM      9  C12 FSN d          14.666 -13.340  17.654  0.00  0.00     0.236 C 
ATOM     10  C13 FSN d          15.296 -11.957  17.291  0.00  0.00     0.030 C 
ATOM     11  C14 FSN d          15.507 -11.299  18.662  0.00  0.00     0.036 C 
ATOM     12  C10 FSN d          14.516 -14.150  19.988  0.00  0.00     0.235 C 
ATOM     13  C22 FSN d          15.285 -13.785  21.244  0.00  0.00     0.129 C 
ATOM     14  H9  FSN d          16.144 -14.517  18.610  0.00  0.00     0.281 HD
ENDROOT
BRANCH  12  15
ATOM     15  C7  FSN d          13.809 -15.470  19.916  0.00  0.00    -0.027 A 
ATOM     16  C8  FSN d          12.658 -15.633  20.680  0.00  0.00     0.010 A 
ATOM     17  C9  FSN d          11.934 -16.815  20.601  0.00  0.00     0.016 A 
ATOM     18  C4  FSN d          12.394 -17.845  19.735  0.00  0.00     0.007 A 
ATOM     19  C5  FSN d          13.549 -17.684  18.961  0.00  0.00     0.016 A 
ATOM     20  C6  FSN d          14.269 -16.488  19.044  0.00  0.00     0.010 A 
BRANCH  18  21
ATOM     21  C3  FSN d          11.630 -19.080  19.679  0.00  0.00     0.102 C 
ATOM     22  N2  FSN d          11.713 -20.039  20.636  0.00  0.00    -0.385 N 
ATOM     23  H23 FSN d          12.333 -19.904  21.447  0.00  0.00     0.157 HD
ATOM     24  H24 FSN d          11.155 -20.901  20.552  0.00  0.00     0.157 HD
BRANCH  21  25
ATOM     25  N1  FSN d          10.785 -19.351  18.651  0.00  0.00    -0.385 N 
ATOM     26  H21 FSN d           9.791 -19.087  18.718  0.00  0.00     0.157 HD
ATOM     27  H22 FSN d          11.137 -19.819  17.805  0.00  0.00     0.157 HD
ENDBRANCH  21  25
ENDBRANCH  18  21
ENDBRANCH  12  15
BRANCH   3  28
ATOM     28  C23 FSN d          18.772 -14.855  22.134  0.00  0.00     0.173 C 
BRANCH  28  29
ATOM     29  C24 FSN d          19.233 -14.539  23.531  0.00  0.00    -0.040 A 
ATOM     30  C32 FSN d          20.278 -13.613  23.713  0.00  0.00     0.012 A 
ATOM     31  C31 FSN d          20.686 -13.293  25.008  0.00  0.00     0.043 A 
ATOM     32  C30 FSN d          20.036 -13.914  26.082  0.00  0.00     0.116 A 
ATOM     33  F29 FSN d          20.462 -13.546  27.304  0.00  0.00    -0.206 F 
ATOM     34  C26 FSN d          19.001 -14.852  25.955  0.00  0.00     0.043 A 
ATOM     35  C25 FSN d          18.600 -15.167  24.632  0.00  0.00     0.012 A 
ENDBRANCH  28  29
ENDBRANCH   3  28
TORSDOF 5
ENDMDL
MODEL 10
REMARK VINA RESULT:      -8.1      2.933      4.801
REMARK  5 active torsions:
REMARK  status: ('A' for Active; 'I' for Inactive)
REMARK    1  A    between atoms: N19_3  and  C23_4 
REMARK    2  A    between atoms: C23_4  and  C24_5 
REMARK    3  A    between atoms: C10_20  and  C7_21 
REMARK    4  A    between atoms: C4_24  and  C3_27 
REMARK    5  A    between atoms: C3_27  and  N1_28 
ROOT
ATOM      1  O21 FSN d          17.522 -13.586  22.394  0.00  0.00    -0.272 OA
ATOM      2  C20 FSN d          17.688 -14.785  22.529  0.00  0.00     0.234 C 
ATOM      3  N19 FSN d          18.164 -15.352  23.732  0.00  0.00    -0.283 N 
ATOM      4  C17 FSN d          18.076 -16.773  23.683  0.00  0.00     0.233 C 
ATOM      5  O18 FSN d          18.428 -17.528  24.576  0.00  0.00    -0.272 OA
ATOM      6  C16 FSN d          17.491 -17.165  22.404  0.00  0.00     0.124 C 
ATOM      7  C15 FSN d          16.003 -17.509  22.433  0.00  0.00     0.203 C 
ATOM      8  N11 FSN d          15.072 -16.358  22.022  0.00  0.00    -0.057 N 
ATOM      9  C12 FSN d          13.948 -17.106  21.389  0.00  0.00     0.236 C 
ATOM     10  C13 FSN d          13.983 -18.517  22.061  0.00  0.00     0.030 C 
ATOM     11  C14 FSN d          15.482 -18.847  22.099  0.00  0.00     0.036 C 
ATOM     12  C10 FSN d          16.005 -15.803  20.948  0.00  0.00     0.235 C 
ATOM     13  C22 FSN d          17.396 -15.858  21.553  0.00  0.00     0.129 C 
ATOM     14  H9  FSN d          14.790 -15.705  22.736  0.00  0.00     0.281 HD
ENDROOT
BRANCH  12  15
ATOM     15  C7  FSN d          15.554 -14.552  20.256  0.00  0.00    -0.027 A 
ATOM     16  C8  FSN d          16.152 -14.230  19.041  0.00  0.00     0.010 A 
ATOM     17  C9  FSN d          15.726 -13.116  18.331  0.00  0.00     0.016 A 
ATOM     18  C4  FSN d          14.680 -12.317  18.872  0.00  0.00     0.007 A 
ATOM     19  C5  FSN d          14.074 -12.639  20.091  0.00  0.00     0.016 A 
ATOM     20  C6  FSN d          14.506 -13.766  20.796  0.00  0.00     0.010 A 
BRANCH  18  21
ATOM     21  C3  FSN d          14.260 -11.146  18.120  0.00  0.00     0.102 C 
ATOM     22  N2  FSN d          14.691 -10.890  16.858  0.00  0.00    -0.385 N 
ATOM     23  H23 FSN d          15.339 -11.542  16.393  0.00  0.00     0.157 HD
ATOM     24  H24 FSN d          14.371 -10.045  16.365  0.00  0.00     0.157 HD
BRANCH  21  25
ATOM     25  N1  FSN d          13.409 -10.228  18.645  0.00  0.00    -0.385 N 
ATOM     26  H21 FSN d          13.331  -9.293  18.218  0.00  0.00     0.157 HD
ATOM     27  H22 FSN d          12.841 -10.465  19.471  0.00  0.00     0.157 HD
ENDBRANCH  21  25
ENDBRANCH  18  21
ENDBRANCH  12  15
BRANCH   3  28
ATOM     28  C23 FSN d          18.443 -14.519  24.902  0.00  0.00     0.173 C 
BRANCH  28  29
ATOM     29  C24 FSN d          19.892 -14.115  24.914  0.00  0.00    -0.040 A 
ATOM     30  C32 FSN d          20.645 -14.233  23.731  0.00  0.00     0.012 A 
ATOM     31  C31 FSN d          21.979 -13.828  23.729  0.00  0.00     0.043 A 
ATOM     32  C30 FSN d          22.520 -13.319  24.916  0.00  0.00     0.116 A 
ATOM     33  F29 FSN d          23.805 -12.927  24.842  0.00  0.00    -0.206 F 
ATOM     34  C26 FSN d          21.819 -13.193  26.124  0.00  0.00     0.043 A 
ATOM     35  C25 FSN d          20.464 -13.611  26.108  0.00  0.00     0.012 A 
ENDBRANCH  28  29
ENDBRANCH   3  28
TORSDOF 5
ENDMDL
