MODEL 1
REMARK VINA RESULT:      -8.0      0.000      0.000
REMARK  4 active torsions:
REMARK  status: ('A' for Active; 'I' for Inactive)
REMARK    1  A    between atoms: C22_2  and  C31_3 
REMARK       I    between atoms: C22_2  and  N21_12 
REMARK    2  A    between atoms: C34_6  and  C41_9 
REMARK    3  A    between atoms: C41_9  and  N43_11 
REMARK    4  A    between atoms: N21_12  and  C14_13 
ROOT
ATOM      1  C31 Y27 d           8.002   9.724   2.302  0.00  0.00     0.078 C 
ATOM      2  C36 Y27 d           6.776   9.517   1.407  0.00  0.00     0.014 C 
ATOM      3  C35 Y27 d           5.507   9.952   2.147  0.00  0.00     0.007 C 
ATOM      4  C34 Y27 d           5.317   8.978   3.315  0.00  0.00     0.016 C 
ATOM      5  C33 Y27 d           6.497   9.128   4.312  0.00  0.00     0.007 C 
ATOM      6  C32 Y27 d           7.890   8.927   3.618  0.00  0.00     0.014 C 
ENDROOT
BRANCH   1   7
ATOM      7  C22 Y27 d           9.253   9.411   1.521  0.00  0.00     0.226 C 
ATOM      8  O23 Y27 d           9.262   8.710   0.506  0.00  0.00    -0.273 OA
ATOM      9  N21 Y27 d          10.423  10.026   2.049  0.00  0.00    -0.327 N 
ATOM     10  H18 Y27 d          10.368  10.356   2.991  0.00  0.00     0.169 HD
BRANCH   9  11
ATOM     11  C14 Y27 d          11.680  10.225   1.370  0.00  0.00     0.037 A 
ATOM     12  C15 Y27 d          12.764   9.482   1.866  0.00  0.00     0.049 A 
ATOM     13  C16 Y27 d          13.990   9.682   1.227  0.00  0.00     0.118 A 
ATOM     14  N11 Y27 d          14.128  10.525   0.182  0.00  0.00    -0.273 NA
ATOM     15  C12 Y27 d          13.101  11.242  -0.302  0.00  0.00     0.118 A 
ATOM     16  C13 Y27 d          11.845  11.121   0.274  0.00  0.00     0.049 A 
ENDBRANCH   9  11
ENDBRANCH   1   7
BRANCH   4  17
ATOM     17  C41 Y27 d           3.890   9.166   3.915  0.00  0.00     0.183 C 
ATOM     18  C42 Y27 d           3.927  10.140   5.107  0.00  0.00     0.040 C 
BRANCH  17  19
ATOM     19  N43 Y27 d           2.918   9.681   2.885  0.00  0.00    -0.075 N 
ATOM     20  H15 Y27 d           1.979   9.432   3.155  0.00  0.00     0.274 HD
ATOM     21  H16 Y27 d           3.130   9.272   1.989  0.00  0.00     0.274 HD
ATOM     22  H17 Y27 d           2.995  10.684   2.823  0.00  0.00     0.274 HD
ENDBRANCH  17  19
ENDBRANCH   4  17
TORSDOF 4
ENDMDL
MODEL 2
REMARK VINA RESULT:      -7.9      2.393      3.217
REMARK  4 active torsions:
REMARK  status: ('A' for Active; 'I' for Inactive)
REMARK    1  A    between atoms: C22_2  and  C31_3 
REMARK       I    between atoms: C22_2  and  N21_12 
REMARK    2  A    between atoms: C34_6  and  C41_9 
REMARK    3  A    between atoms: C41_9  and  N43_11 
REMARK    4  A    between atoms: N21_12  and  C14_13 
ROOT
ATOM      1  C31 Y27 d           8.499   9.067   4.048  0.00  0.00     0.078 C 
ATOM      2  C36 Y27 d           7.861  10.076   5.007  0.00  0.00     0.014 C 
ATOM      3  C35 Y27 d           6.386   9.726   5.232  0.00  0.00     0.007 C 
ATOM      4  C34 Y27 d           5.668   9.939   3.894  0.00  0.00     0.016 C 
ATOM      5  C33 Y27 d           6.219   8.934   2.847  0.00  0.00     0.007 C 
ATOM      6  C32 Y27 d           7.776   9.037   2.686  0.00  0.00     0.014 C 
ENDROOT
BRANCH   1   7
ATOM      7  C22 Y27 d           9.976   9.347   3.933  0.00  0.00     0.226 C 
ATOM      8  O23 Y27 d          10.491  10.419   4.263  0.00  0.00    -0.273 OA
ATOM      9  N21 Y27 d          10.727   8.247   3.433  0.00  0.00    -0.327 N 
ATOM     10  H18 Y27 d          10.212   7.530   2.963  0.00  0.00     0.169 HD
BRANCH   9  11
ATOM     11  C14 Y27 d          12.154   8.054   3.532  0.00  0.00     0.037 A 
ATOM     12  C15 Y27 d          12.906   8.513   2.438  0.00  0.00     0.049 A 
ATOM     13  C16 Y27 d          14.287   8.314   2.516  0.00  0.00     0.118 A 
ATOM     14  N11 Y27 d          14.871   7.731   3.585  0.00  0.00    -0.273 NA
ATOM     15  C12 Y27 d          14.164   7.288   4.636  0.00  0.00     0.118 A 
ATOM     16  C13 Y27 d          12.784   7.430   4.647  0.00  0.00     0.049 A 
ENDBRANCH   9  11
ENDBRANCH   1   7
BRANCH   4  17
ATOM     17  C41 Y27 d           4.127   9.906   4.126  0.00  0.00     0.183 C 
ATOM     18  C42 Y27 d           3.439   9.013   3.077  0.00  0.00     0.040 C 
BRANCH  17  19
ATOM     19  N43 Y27 d           3.784   9.403   5.504  0.00  0.00    -0.075 N 
ATOM     20  H15 Y27 d           3.404   8.471   5.437  0.00  0.00     0.274 HD
ATOM     21  H16 Y27 d           3.102  10.015   5.925  0.00  0.00     0.274 HD
ATOM     22  H17 Y27 d           4.616   9.387   6.073  0.00  0.00     0.274 HD
ENDBRANCH  17  19
ENDBRANCH   4  17
TORSDOF 4
ENDMDL
MODEL 3
REMARK VINA RESULT:      -7.9      1.666      2.374
REMARK  4 active torsions:
REMARK  status: ('A' for Active; 'I' for Inactive)
REMARK    1  A    between atoms: C22_2  and  C31_3 
REMARK       I    between atoms: C22_2  and  N21_12 
REMARK    2  A    between atoms: C34_6  and  C41_9 
REMARK    3  A    between atoms: C41_9  and  N43_11 
REMARK    4  A    between atoms: N21_12  and  C14_13 
ROOT
ATOM      1  C31 Y27 d           8.501   9.326   3.953  0.00  0.00     0.078 C 
ATOM      2  C36 Y27 d           7.814  10.289   4.926  0.00  0.00     0.014 C 
ATOM      3  C35 Y27 d           6.372   9.839   5.178  0.00  0.00     0.007 C 
ATOM      4  C34 Y27 d           5.616  10.004   3.854  0.00  0.00     0.016 C 
ATOM      5  C33 Y27 d           6.213   9.040   2.794  0.00  0.00     0.007 C 
ATOM      6  C32 Y27 d           7.757   9.248   2.605  0.00  0.00     0.014 C 
ENDROOT
BRANCH   1   7
ATOM      7  C22 Y27 d           9.954   9.706   3.811  0.00  0.00     0.226 C 
ATOM      8  O23 Y27 d          10.702   9.896   4.773  0.00  0.00    -0.273 OA
ATOM      9  N21 Y27 d          10.390   9.796   2.459  0.00  0.00    -0.327 N 
ATOM     10  H18 Y27 d           9.675   9.876   1.764  0.00  0.00     0.169 HD
BRANCH   9  11
ATOM     11  C14 Y27 d          11.752   9.784   1.985  0.00  0.00     0.037 A 
ATOM     12  C15 Y27 d          12.153  10.919   1.259  0.00  0.00     0.049 A 
ATOM     13  C16 Y27 d          13.465  10.910   0.780  0.00  0.00     0.118 A 
ATOM     14  N11 Y27 d          14.307   9.881   1.010  0.00  0.00    -0.273 NA
ATOM     15  C12 Y27 d          13.938   8.791   1.701  0.00  0.00     0.118 A 
ATOM     16  C13 Y27 d          12.650   8.701   2.209  0.00  0.00     0.049 A 
ENDBRANCH   9  11
ENDBRANCH   1   7
BRANCH   4  17
ATOM     17  C41 Y27 d           4.085   9.867   4.114  0.00  0.00     0.183 C 
ATOM     18  C42 Y27 d           3.444   8.913   3.090  0.00  0.00     0.040 C 
BRANCH  17  19
ATOM     19  N43 Y27 d           3.802   9.363   5.505  0.00  0.00    -0.075 N 
ATOM     20  H15 Y27 d           4.314   8.509   5.663  0.00  0.00     0.274 HD
ATOM     21  H16 Y27 d           2.814   9.185   5.603  0.00  0.00     0.274 HD
ATOM     22  H17 Y27 d           4.087  10.056   6.179  0.00  0.00     0.274 HD
ENDBRANCH  17  19
ENDBRANCH   4  17
TORSDOF 4
ENDMDL
MODEL 4
REMARK VINA RESULT:      -7.8      2.626      3.070
REMARK  4 active torsions:
REMARK  status: ('A' for Active; 'I' for Inactive)
REMARK    1  A    between atoms: C22_2  and  C31_3 
REMARK       I    between atoms: C22_2  and  N21_12 
REMARK    2  A    between atoms: C34_6  and  C41_9 
REMARK    3  A    between atoms: C41_9  and  N43_11 
REMARK    4  A    between atoms: N21_12  and  C14_13 
ROOT
ATOM      1  C31 Y27 d           8.687   9.812   3.466  0.00  0.00     0.078 C 
ATOM      2  C36 Y27 d           7.727   9.415   2.340  0.00  0.00     0.014 C 
ATOM      3  C35 Y27 d           6.338  10.006   2.602  0.00  0.00     0.007 C 
ATOM      4  C34 Y27 d           5.790   9.315   3.856  0.00  0.00     0.016 C 
ATOM      5  C33 Y27 d           6.676   9.680   5.077  0.00  0.00     0.007 C 
ATOM      6  C32 Y27 d           8.187   9.328   4.841  0.00  0.00     0.014 C 
ENDROOT
BRANCH   1   7
ATOM      7  C22 Y27 d          10.077   9.331   3.134  0.00  0.00     0.226 C 
ATOM      8  O23 Y27 d          10.646   9.583   2.068  0.00  0.00    -0.273 OA
ATOM      9  N21 Y27 d          10.686   8.582   4.180  0.00  0.00    -0.327 N 
ATOM     10  H18 Y27 d          10.074   8.219   4.883  0.00  0.00     0.169 HD
BRANCH   9  11
ATOM     11  C14 Y27 d          12.090   8.290   4.334  0.00  0.00     0.037 A 
ATOM     12  C15 Y27 d          12.783   9.102   5.246  0.00  0.00     0.049 A 
ATOM     13  C16 Y27 d          14.148   8.839   5.390  0.00  0.00     0.118 A 
ATOM     14  N11 Y27 d          14.766   7.853   4.706  0.00  0.00    -0.273 NA
ATOM     15  C12 Y27 d          14.116   7.070   3.831  0.00  0.00     0.118 A 
ATOM     16  C13 Y27 d          12.759   7.261   3.611  0.00  0.00     0.049 A 
ENDBRANCH   9  11
ENDBRANCH   1   7
BRANCH   4  17
ATOM     17  C41 Y27 d           4.270   9.635   3.997  0.00  0.00     0.183 C 
ATOM     18  C42 Y27 d           3.454   8.862   2.945  0.00  0.00     0.040 C 
BRANCH  17  19
ATOM     19  N43 Y27 d           3.756   9.293   5.371  0.00  0.00    -0.075 N 
ATOM     20  H15 Y27 d           2.759   9.143   5.330  0.00  0.00     0.274 HD
ATOM     21  H16 Y27 d           3.956  10.052   6.003  0.00  0.00     0.274 HD
ATOM     22  H17 Y27 d           4.208   8.454   5.701  0.00  0.00     0.274 HD
ENDBRANCH  17  19
ENDBRANCH   4  17
TORSDOF 4
ENDMDL
MODEL 5
REMARK VINA RESULT:      -7.7      1.483      7.738
REMARK  4 active torsions:
REMARK  status: ('A' for Active; 'I' for Inactive)
REMARK    1  A    between atoms: C22_2  and  C31_3 
REMARK       I    between atoms: C22_2  and  N21_12 
REMARK    2  A    between atoms: C34_6  and  C41_9 
REMARK    3  A    between atoms: C41_9  and  N43_11 
REMARK    4  A    between atoms: N21_12  and  C14_13 
ROOT
ATOM      1  C31 Y27 d           9.368   9.986   2.030  0.00  0.00     0.078 C 
ATOM      2  C36 Y27 d          10.583   9.551   2.855  0.00  0.00     0.014 C 
ATOM      3  C35 Y27 d          11.810  10.378   2.458  0.00  0.00     0.007 C 
ATOM      4  C34 Y27 d          12.154  10.000   1.012  0.00  0.00     0.016 C 
ATOM      5  C33 Y27 d          10.994  10.431   0.076  0.00  0.00     0.007 C 
ATOM      6  C32 Y27 d           9.616   9.822   0.517  0.00  0.00     0.014 C 
ENDROOT
BRANCH   1   7
ATOM      7  C22 Y27 d           8.142   9.255   2.516  0.00  0.00     0.226 C 
ATOM      8  O23 Y27 d           8.149   8.067   2.849  0.00  0.00    -0.273 OA
ATOM      9  N21 Y27 d           6.980  10.073   2.581  0.00  0.00    -0.327 N 
ATOM     10  H18 Y27 d           7.005  10.928   2.064  0.00  0.00     0.169 HD
BRANCH   9  11
ATOM     11  C14 Y27 d           5.768   9.800   3.314  0.00  0.00     0.037 A 
ATOM     12  C15 Y27 d           4.750   9.157   2.590  0.00  0.00     0.049 A 
ATOM     13  C16 Y27 d           3.566   8.905   3.287  0.00  0.00     0.118 A 
ATOM     14  N11 Y27 d           3.408   9.242   4.584  0.00  0.00    -0.273 NA
ATOM     15  C12 Y27 d           4.371   9.858   5.288  0.00  0.00     0.118 A 
ATOM     16  C13 Y27 d           5.581  10.161   4.680  0.00  0.00     0.049 A 
ENDBRANCH   9  11
ENDBRANCH   1   7
BRANCH   4  17
ATOM     17  C41 Y27 d          13.564  10.561   0.655  0.00  0.00     0.183 C 
ATOM     18  C42 Y27 d          14.664   9.561   1.058  0.00  0.00     0.040 C 
BRANCH  17  19
ATOM     19  N43 Y27 d          13.684  10.862  -0.817  0.00  0.00    -0.075 N 
ATOM     20  H15 Y27 d          12.763  10.937  -1.221  0.00  0.00     0.274 HD
ATOM     21  H16 Y27 d          14.191  10.119  -1.271  0.00  0.00     0.274 HD
ATOM     22  H17 Y27 d          14.178  11.732  -0.943  0.00  0.00     0.274 HD
ENDBRANCH  17  19
ENDBRANCH   4  17
TORSDOF 4
ENDMDL
MODEL 6
REMARK VINA RESULT:      -7.7      1.936      7.634
REMARK  4 active torsions:
REMARK  status: ('A' for Active; 'I' for Inactive)
REMARK    1  A    between atoms: C22_2  and  C31_3 
REMARK       I    between atoms: C22_2  and  N21_12 
REMARK    2  A    between atoms: C34_6  and  C41_9 
REMARK    3  A    between atoms: C41_9  and  N43_11 
REMARK    4  A    between atoms: N21_12  and  C14_13 
ROOT
ATOM      1  C31 Y27 d           9.555   9.238   2.658  0.00  0.00     0.078 C 
ATOM      2  C36 Y27 d           9.938   7.764   2.822  0.00  0.00     0.014 C 
ATOM      3  C35 Y27 d          11.425   7.645   3.171  0.00  0.00     0.007 C 
ATOM      4  C34 Y27 d          12.211   8.128   1.946  0.00  0.00     0.016 C 
ATOM      5  C33 Y27 d          11.920   9.633   1.706  0.00  0.00     0.007 C 
ATOM      6  C32 Y27 d          10.386   9.926   1.557  0.00  0.00     0.014 C 
ENDROOT
BRANCH   1   7
ATOM      7  C22 Y27 d           8.067   9.349   2.440  0.00  0.00     0.226 C 
ATOM      8  O23 Y27 d           7.520   9.105   1.361  0.00  0.00    -0.273 OA
ATOM      9  N21 Y27 d           7.347   9.734   3.605  0.00  0.00    -0.327 N 
ATOM     10  H18 Y27 d           7.880  10.148   4.343  0.00  0.00     0.169 HD
BRANCH   9  11
ATOM     11  C14 Y27 d           5.930   9.591   3.836  0.00  0.00     0.037 A 
ATOM     12  C15 Y27 d           5.463  10.077   5.069  0.00  0.00     0.049 A 
ATOM     13  C16 Y27 d           4.095   9.927   5.310  0.00  0.00     0.118 A 
ATOM     14  N11 Y27 d           3.264   9.363   4.409  0.00  0.00    -0.273 NA
ATOM     15  C12 Y27 d           3.696   8.893   3.228  0.00  0.00     0.118 A 
ATOM     16  C13 Y27 d           5.041   8.987   2.901  0.00  0.00     0.049 A 
ENDBRANCH   9  11
ENDBRANCH   1   7
BRANCH   4  17
ATOM     17  C41 Y27 d          13.712   7.741   2.111  0.00  0.00     0.183 C 
ATOM     18  C42 Y27 d          13.916   6.889   3.378  0.00  0.00     0.040 C 
BRANCH  17  19
ATOM     19  N43 Y27 d          14.224   6.980   0.916  0.00  0.00    -0.075 N 
ATOM     20  H15 Y27 d          13.462   6.801   0.280  0.00  0.00     0.274 HD
ATOM     21  H16 Y27 d          14.620   6.105   1.220  0.00  0.00     0.274 HD
ATOM     22  H17 Y27 d          14.931   7.525   0.448  0.00  0.00     0.274 HD
ENDBRANCH  17  19
ENDBRANCH   4  17
TORSDOF 4
ENDMDL
MODEL 7
REMARK VINA RESULT:      -7.5      1.855      7.510
REMARK  4 active torsions:
REMARK  status: ('A' for Active; 'I' for Inactive)
REMARK    1  A    between atoms: C22_2  and  C31_3 
REMARK       I    between atoms: C22_2  and  N21_12 
REMARK    2  A    between atoms: C34_6  and  C41_9 
REMARK    3  A    between atoms: C41_9  and  N43_11 
REMARK    4  A    between atoms: N21_12  and  C14_13 
ROOT
ATOM      1  C31 Y27 d           9.566   8.652   3.072  0.00  0.00     0.078 C 
ATOM      2  C36 Y27 d           9.384   9.673   1.946  0.00  0.00     0.014 C 
ATOM      3  C35 Y27 d          10.641   9.722   1.073  0.00  0.00     0.007 C 
ATOM      4  C34 Y27 d          11.768  10.288   1.946  0.00  0.00     0.016 C 
ATOM      5  C33 Y27 d          12.062   9.306   3.111  0.00  0.00     0.007 C 
ATOM      6  C32 Y27 d          10.780   8.991   3.960  0.00  0.00     0.014 C 
ENDROOT
BRANCH   1   7
ATOM      7  C22 Y27 d           8.279   8.522   3.847  0.00  0.00     0.226 C 
ATOM      8  O23 Y27 d           8.232   8.181   5.032  0.00  0.00    -0.273 OA
ATOM      9  N21 Y27 d           7.122   8.858   3.090  0.00  0.00    -0.327 N 
ATOM     10  H18 Y27 d           7.228   8.874   2.095  0.00  0.00     0.169 HD
BRANCH   9  11
ATOM     11  C14 Y27 d           5.813   9.179   3.603  0.00  0.00     0.037 A 
ATOM     12  C15 Y27 d           4.737   8.898   2.744  0.00  0.00     0.049 A 
ATOM     13  C16 Y27 d           3.466   9.221   3.225  0.00  0.00     0.118 A 
ATOM     14  N11 Y27 d           3.275   9.759   4.448  0.00  0.00    -0.273 NA
ATOM     15  C12 Y27 d           4.293  10.034   5.278  0.00  0.00     0.118 A 
ATOM     16  C13 Y27 d           5.595   9.758   4.887  0.00  0.00     0.049 A 
ENDBRANCH   9  11
ENDBRANCH   1   7
BRANCH   4  17
ATOM     17  C41 Y27 d          12.983  10.658   1.042  0.00  0.00     0.183 C 
ATOM     18  C42 Y27 d          14.104   9.612   1.186  0.00  0.00     0.040 C 
BRANCH  17  19
ATOM     19  N43 Y27 d          12.586  10.761  -0.407  0.00  0.00    -0.075 N 
ATOM     20  H15 Y27 d          12.087   9.927  -0.679  0.00  0.00     0.274 HD
ATOM     21  H16 Y27 d          13.413  10.858  -0.976  0.00  0.00     0.274 HD
ATOM     22  H17 Y27 d          11.992  11.565  -0.537  0.00  0.00     0.274 HD
ENDBRANCH  17  19
ENDBRANCH   4  17
TORSDOF 4
ENDMDL
MODEL 8
REMARK VINA RESULT:      -7.3      2.427      3.139
REMARK  4 active torsions:
REMARK  status: ('A' for Active; 'I' for Inactive)
REMARK    1  A    between atoms: C22_2  and  C31_3 
REMARK       I    between atoms: C22_2  and  N21_12 
REMARK    2  A    between atoms: C34_6  and  C41_9 
REMARK    3  A    between atoms: C41_9  and  N43_11 
REMARK    4  A    between atoms: N21_12  and  C14_13 
ROOT
ATOM      1  C31 Y27 d          10.053  10.146   3.746  0.00  0.00     0.078 C 
ATOM      2  C36 Y27 d           9.342   9.183   2.790  0.00  0.00     0.014 C 
ATOM      3  C35 Y27 d           7.862   9.561   2.670  0.00  0.00     0.007 C 
ATOM      4  C34 Y27 d           7.224   9.306   4.040  0.00  0.00     0.016 C 
ATOM      5  C33 Y27 d           7.853  10.262   5.089  0.00  0.00     0.007 C 
ATOM      6  C32 Y27 d           9.416  10.133   5.150  0.00  0.00     0.014 C 
ENDROOT
BRANCH   1   7
ATOM      7  C22 Y27 d          11.530   9.842   3.759  0.00  0.00     0.226 C 
ATOM      8  O23 Y27 d          12.271  10.115   4.707  0.00  0.00    -0.273 OA
ATOM      9  N21 Y27 d          11.986   9.183   2.583  0.00  0.00    -0.327 N 
ATOM     10  H18 Y27 d          11.388   9.231   1.783  0.00  0.00     0.169 HD
BRANCH   9  11
ATOM     11  C14 Y27 d          13.219   8.452   2.421  0.00  0.00     0.037 A 
ATOM     12  C15 Y27 d          14.163   9.035   1.560  0.00  0.00     0.049 A 
ATOM     13  C16 Y27 d          15.354   8.325   1.383  0.00  0.00     0.118 A 
ATOM     14  N11 Y27 d          15.595   7.156   2.012  0.00  0.00    -0.273 NA
ATOM     15  C12 Y27 d          14.701   6.587   2.837  0.00  0.00     0.118 A 
ATOM     16  C13 Y27 d          13.484   7.210   3.069  0.00  0.00     0.049 A 
ENDBRANCH   9  11
ENDBRANCH   1   7
BRANCH   4  17
ATOM     17  C41 Y27 d           5.672   9.368   3.906  0.00  0.00     0.183 C 
ATOM     18  C42 Y27 d           5.035   9.889   5.207  0.00  0.00     0.040 C 
BRANCH  17  19
ATOM     19  N43 Y27 d           5.249  10.251   2.760  0.00  0.00    -0.075 N 
ATOM     20  H15 Y27 d           4.331   9.977   2.446  0.00  0.00     0.274 HD
ATOM     21  H16 Y27 d           5.906  10.155   2.002  0.00  0.00     0.274 HD
ATOM     22  H17 Y27 d           5.227  11.211   3.066  0.00  0.00     0.274 HD
ENDBRANCH  17  19
ENDBRANCH   4  17
TORSDOF 4
ENDMDL
MODEL 9
REMARK VINA RESULT:      -7.2      2.892      3.857
REMARK  4 active torsions:
REMARK  status: ('A' for Active; 'I' for Inactive)
REMARK    1  A    between atoms: C22_2  and  C31_3 
REMARK       I    between atoms: C22_2  and  N21_12 
REMARK    2  A    between atoms: C34_6  and  C41_9 
REMARK    3  A    between atoms: C41_9  and  N43_11 
REMARK    4  A    between atoms: N21_12  and  C14_13 
ROOT
ATOM      1  C31 Y27 d          10.153   8.136   2.467  0.00  0.00     0.078 C 
ATOM      2  C36 Y27 d           9.845   8.353   3.951  0.00  0.00     0.014 C 
ATOM      3  C35 Y27 d           8.335   8.266   4.192  0.00  0.00     0.007 C 
ATOM      4  C34 Y27 d           7.700   9.462   3.473  0.00  0.00     0.016 C 
ATOM      5  C33 Y27 d           7.924   9.326   1.944  0.00  0.00     0.007 C 
ATOM      6  C32 Y27 d           9.443   9.175   1.577  0.00  0.00     0.014 C 
ENDROOT
BRANCH   1   7
ATOM      7  C22 Y27 d          11.647   8.099   2.264  0.00  0.00     0.226 C 
ATOM      8  O23 Y27 d          12.253   8.895   1.541  0.00  0.00    -0.273 OA
ATOM      9  N21 Y27 d          12.298   7.076   3.008  0.00  0.00    -0.327 N 
ATOM     10  H18 Y27 d          11.719   6.337   3.354  0.00  0.00     0.169 HD
BRANCH   9  11
ATOM     11  C14 Y27 d          13.705   6.989   3.316  0.00  0.00     0.037 A 
ATOM     12  C15 Y27 d          14.060   7.320   4.634  0.00  0.00     0.049 A 
ATOM     13  C16 Y27 d          15.422   7.256   4.938  0.00  0.00     0.118 A 
ATOM     14  N11 Y27 d          16.345   6.883   4.028  0.00  0.00    -0.273 NA
ATOM     15  C12 Y27 d          16.021   6.564   2.765  0.00  0.00     0.118 A 
ATOM     16  C13 Y27 d          14.693   6.608   2.363  0.00  0.00     0.049 A 
ENDBRANCH   9  11
ENDBRANCH   1   7
BRANCH   4  17
ATOM     17  C41 Y27 d           6.218   9.612   3.934  0.00  0.00     0.183 C 
ATOM     18  C42 Y27 d           6.142  10.341   5.288  0.00  0.00     0.040 C 
BRANCH  17  19
ATOM     19  N43 Y27 d           5.395  10.364   2.921  0.00  0.00    -0.075 N 
ATOM     20  H15 Y27 d           5.867  10.353   2.029  0.00  0.00     0.274 HD
ATOM     21  H16 Y27 d           5.275  11.317   3.226  0.00  0.00     0.274 HD
ATOM     22  H17 Y27 d           4.492   9.926   2.828  0.00  0.00     0.274 HD
ENDBRANCH  17  19
ENDBRANCH   4  17
TORSDOF 4
ENDMDL
MODEL 10
REMARK VINA RESULT:      -7.1      3.137      8.448
REMARK  4 active torsions:
REMARK  status: ('A' for Active; 'I' for Inactive)
REMARK    1  A    between atoms: C22_2  and  C31_3 
REMARK       I    between atoms: C22_2  and  N21_12 
REMARK    2  A    between atoms: C34_6  and  C41_9 
REMARK    3  A    between atoms: C41_9  and  N43_11 
REMARK    4  A    between atoms: N21_12  and  C14_13 
ROOT
ATOM      1  C31 Y27 d          12.428   8.096   3.752  0.00  0.00     0.078 C 
ATOM      2  C36 Y27 d          13.297   8.742   2.667  0.00  0.00     0.014 C 
ATOM      3  C35 Y27 d          14.477   7.827   2.328  0.00  0.00     0.007 C 
ATOM      4  C34 Y27 d          15.371   7.772   3.573  0.00  0.00     0.016 C 
ATOM      5  C33 Y27 d          14.595   7.098   4.736  0.00  0.00     0.007 C 
ATOM      6  C32 Y27 d          13.233   7.818   5.037  0.00  0.00     0.014 C 
ENDROOT
BRANCH   1   7
ATOM      7  C22 Y27 d          11.204   8.945   3.987  0.00  0.00     0.226 C 
ATOM      8  O23 Y27 d          11.206  10.177   3.903  0.00  0.00    -0.273 OA
ATOM      9  N21 Y27 d          10.037   8.190   4.287  0.00  0.00    -0.327 N 
ATOM     10  H18 Y27 d          10.179   7.244   4.579  0.00  0.00     0.169 HD
BRANCH   9  11
ATOM     11  C14 Y27 d           8.669   8.642   4.216  0.00  0.00     0.037 A 
ATOM     12  C15 Y27 d           8.101   8.663   2.931  0.00  0.00     0.049 A 
ATOM     13  C16 Y27 d           6.782   9.117   2.848  0.00  0.00     0.118 A 
ATOM     14  N11 Y27 d           6.084   9.499   3.938  0.00  0.00    -0.273 NA
ATOM     15  C12 Y27 d           6.614   9.485   5.172  0.00  0.00     0.118 A 
ATOM     16  C13 Y27 d           7.922   9.061   5.355  0.00  0.00     0.049 A 
ENDBRANCH   9  11
ENDBRANCH   1   7
BRANCH   4  17
ATOM     17  C41 Y27 d          16.737   7.121   3.198  0.00  0.00     0.183 C 
ATOM     18  C42 Y27 d          17.189   7.577   1.798  0.00  0.00     0.040 C 
BRANCH  17  19
ATOM     19  N43 Y27 d          17.809   7.465   4.200  0.00  0.00    -0.075 N 
ATOM     20  H15 Y27 d          17.421   7.436   5.130  0.00  0.00     0.274 HD
ATOM     21  H16 Y27 d          18.160   8.391   4.011  0.00  0.00     0.274 HD
ATOM     22  H17 Y27 d          18.562   6.799   4.129  0.00  0.00     0.274 HD
ENDBRANCH  17  19
ENDBRANCH   4  17
TORSDOF 4
ENDMDL
