MODEL 1
REMARK VINA RESULT:      -8.8      0.000      0.000
REMARK  2 active torsions:
REMARK  status: ('A' for Active; 'I' for Inactive)
REMARK    1  A    between atoms: S5_2  and  N21_4 
REMARK    2  A    between atoms: S5_2  and  C5_12 
ROOT
ATOM      1  O1  H52 d           8.900  11.395   4.994  0.00  0.00    -0.200 OA
ATOM      2  S5  H52 d           8.770  10.000   4.493  0.00  0.00     0.262 S 
ATOM      3  O2  H52 d           8.453   8.951   5.470  0.00  0.00    -0.200 OA
ENDROOT
BRANCH   2   4
ATOM      4  N21 H52 d          10.160   9.411   3.683  0.00  0.00    -0.301 N 
ATOM      5  C22 H52 d          10.500   7.944   3.902  0.00  0.00     0.117 C 
ATOM      6  C2M H52 d           9.584   6.988   3.158  0.00  0.00     0.034 C 
ATOM      7  C23 H52 d          11.960   7.539   3.668  0.00  0.00     0.257 C 
ATOM      8  N24 H52 d          12.810   8.211   4.728  0.00  0.00    -0.073 N 
ATOM      9  C25 H52 d          13.346   9.521   4.173  0.00  0.00     0.234 C 
ATOM     10  H7  H52 d          13.579   7.609   4.977  0.00  0.00     0.277 HD
ATOM     11  H8  H52 d          12.248   8.394   5.544  0.00  0.00     0.277 HD
ATOM     12  C26 H52 d          12.293  10.642   4.108  0.00  0.00     0.048 C 
ATOM     13  C27 H52 d          11.192  10.313   3.107  0.00  0.00     0.137 C 
ENDBRANCH   2   4
BRANCH   2  14
ATOM     14  C5  H52 d           7.430   9.935   3.316  0.00  0.00     0.091 A 
ATOM     15  C10 H52 d           5.990   9.950   3.624  0.00  0.00     0.006 A 
ATOM     16  C4  H52 d           5.296  10.090   4.894  0.00  0.00    -0.032 A 
ATOM     17  C9  H52 d           5.105   9.797   2.515  0.00  0.00    -0.006 A 
ATOM     18  CM  H52 d           5.911  10.316   6.241  0.00  0.00     0.050 C 
ATOM     19  C3  H52 d           3.921  10.044   4.979  0.00  0.00     0.123 A 
ATOM     20  N2  H52 d           3.147   9.861   3.890  0.00  0.00    -0.272 NA
ATOM     21  C1  H52 d           3.690   9.775   2.700  0.00  0.00     0.128 A 
ATOM     22  C8  H52 d           5.606   9.651   1.191  0.00  0.00     0.014 A 
ATOM     23  C7  H52 d           6.950   9.639   0.946  0.00  0.00     0.002 A 
ATOM     24  C6  H52 d           7.867   9.755   2.020  0.00  0.00     0.026 A 
ENDBRANCH   2  14
TORSDOF 2
ENDMDL
MODEL 2
REMARK VINA RESULT:      -8.3      2.399      3.155
REMARK  2 active torsions:
REMARK  status: ('A' for Active; 'I' for Inactive)
REMARK    1  A    between atoms: S5_2  and  N21_4 
REMARK    2  A    between atoms: S5_2  and  C5_12 
ROOT
ATOM      1  O1  H52 d           9.647   6.945   2.750  0.00  0.00    -0.200 OA
ATOM      2  S5  H52 d           9.751   8.105   1.823  0.00  0.00     0.262 S 
ATOM      3  O2  H52 d           9.801   7.823   0.383  0.00  0.00    -0.200 OA
ENDROOT
BRANCH   2   4
ATOM      4  N21 H52 d          11.113   9.106   2.101  0.00  0.00    -0.301 N 
ATOM      5  C22 H52 d          11.765   9.718   0.870  0.00  0.00     0.117 C 
ATOM      6  C2M H52 d          10.969  10.860   0.262  0.00  0.00     0.034 C 
ATOM      7  C23 H52 d          13.234  10.137   1.011  0.00  0.00     0.257 C 
ATOM      8  N24 H52 d          14.063   8.883   1.204  0.00  0.00    -0.073 N 
ATOM      9  C25 H52 d          14.249   8.640   2.693  0.00  0.00     0.234 C 
ATOM     10  H7  H52 d          14.962   9.001   0.766  0.00  0.00     0.277 HD
ATOM     11  H8  H52 d          13.588   8.096   0.790  0.00  0.00     0.277 HD
ATOM     12  C26 H52 d          12.994   8.085   3.391  0.00  0.00     0.048 C 
ATOM     13  C27 H52 d          11.860   9.102   3.387  0.00  0.00     0.137 C 
ENDBRANCH   2   4
BRANCH   2  14
ATOM     14  C5  H52 d           8.310   9.136   2.030  0.00  0.00     0.091 A 
ATOM     15  C10 H52 d           7.638   9.460   3.300  0.00  0.00     0.006 A 
ATOM     16  C4  H52 d           7.984   9.113   4.669  0.00  0.00    -0.032 A 
ATOM     17  C9  H52 d           6.444  10.236   3.203  0.00  0.00    -0.006 A 
ATOM     18  CM  H52 d           9.190   8.355   5.133  0.00  0.00     0.050 C 
ATOM     19  C3  H52 d           7.196   9.488   5.735  0.00  0.00     0.123 A 
ATOM     20  N2  H52 d           6.059  10.193   5.565  0.00  0.00    -0.272 NA
ATOM     21  C1  H52 d           5.699  10.589   4.368  0.00  0.00     0.128 A 
ATOM     22  C8  H52 d           5.953  10.671   1.940  0.00  0.00     0.014 A 
ATOM     23  C7  H52 d           6.604  10.348   0.783  0.00  0.00     0.002 A 
ATOM     24  C6  H52 d           7.775   9.551   0.829  0.00  0.00     0.026 A 
ENDBRANCH   2  14
TORSDOF 2
ENDMDL
MODEL 3
REMARK VINA RESULT:      -8.2      1.277      1.677
REMARK  2 active torsions:
REMARK  status: ('A' for Active; 'I' for Inactive)
REMARK    1  A    between atoms: S5_2  and  N21_4 
REMARK    2  A    between atoms: S5_2  and  C5_12 
ROOT
ATOM      1  O1  H52 d           9.638  10.654   5.404  0.00  0.00    -0.200 OA
ATOM      2  S5  H52 d           9.745   9.518   4.449  0.00  0.00     0.262 S 
ATOM      3  O2  H52 d           9.203   8.220   4.870  0.00  0.00    -0.200 OA
ENDROOT
BRANCH   2   4
ATOM      4  N21 H52 d          11.346   9.162   3.954  0.00  0.00    -0.301 N 
ATOM      5  C22 H52 d          11.658   7.699   3.672  0.00  0.00     0.117 C 
ATOM      6  C2M H52 d          11.074   7.193   2.365  0.00  0.00     0.034 C 
ATOM      7  C23 H52 d          13.131   7.283   3.769  0.00  0.00     0.257 C 
ATOM      8  N24 H52 d          13.560   7.413   5.217  0.00  0.00    -0.073 N 
ATOM      9  C25 H52 d          14.192   8.780   5.423  0.00  0.00     0.234 C 
ATOM     10  H7  H52 d          14.231   6.693   5.436  0.00  0.00     0.277 HD
ATOM     11  H8  H52 d          12.757   7.318   5.818  0.00  0.00     0.277 HD
ATOM     12  C26 H52 d          13.172   9.931   5.478  0.00  0.00     0.048 C 
ATOM     13  C27 H52 d          12.471  10.117   4.138  0.00  0.00     0.137 C 
ENDBRANCH   2   4
BRANCH   2  14
ATOM     14  C5  H52 d           8.835   9.925   2.969  0.00  0.00     0.091 A 
ATOM     15  C10 H52 d           7.373  10.056   2.846  0.00  0.00     0.006 A 
ATOM     16  C4  H52 d           6.328   9.971   3.853  0.00  0.00    -0.032 A 
ATOM     17  C9  H52 d           6.869  10.301   1.533  0.00  0.00    -0.006 A 
ATOM     18  CM  H52 d           6.506   9.774   5.328  0.00  0.00     0.050 C 
ATOM     19  C3  H52 d           4.994  10.091   3.528  0.00  0.00     0.123 A 
ATOM     20  N2  H52 d           4.587  10.287   2.258  0.00  0.00    -0.272 NA
ATOM     21  C1  H52 d           5.466  10.424   1.295  0.00  0.00     0.128 A 
ATOM     22  C8  H52 d           7.747  10.419   0.420  0.00  0.00     0.014 A 
ATOM     23  C7  H52 d           9.098  10.288   0.575  0.00  0.00     0.002 A 
ATOM     24  C6  H52 d           9.641  10.012   1.854  0.00  0.00     0.026 A 
ENDBRANCH   2  14
TORSDOF 2
ENDMDL
MODEL 4
REMARK VINA RESULT:      -8.1      1.631      1.711
REMARK  2 active torsions:
REMARK  status: ('A' for Active; 'I' for Inactive)
REMARK    1  A    between atoms: S5_2  and  N21_4 
REMARK    2  A    between atoms: S5_2  and  C5_12 
ROOT
ATOM      1  O1  H52 d          10.215  11.336   4.221  0.00  0.00    -0.200 OA
ATOM      2  S5  H52 d           9.935  10.016   3.595  0.00  0.00     0.262 S 
ATOM      3  O2  H52 d           9.960   8.832   4.463  0.00  0.00    -0.200 OA
ENDROOT
BRANCH   2   4
ATOM      4  N21 H52 d          10.987   9.612   2.305  0.00  0.00    -0.301 N 
ATOM      5  C22 H52 d          11.660   8.249   2.382  0.00  0.00     0.117 C 
ATOM      6  C2M H52 d          10.729   7.090   2.070  0.00  0.00     0.034 C 
ATOM      7  C23 H52 d          12.964   8.084   1.592  0.00  0.00     0.257 C 
ATOM      8  N24 H52 d          14.012   8.979   2.224  0.00  0.00    -0.073 N 
ATOM      9  C25 H52 d          14.029  10.311   1.492  0.00  0.00     0.234 C 
ATOM     10  H7  H52 d          14.917   8.541   2.152  0.00  0.00     0.277 HD
ATOM     11  H8  H52 d          13.787   9.129   3.195  0.00  0.00     0.277 HD
ATOM     12  C26 H52 d          12.840  11.224   1.841  0.00  0.00     0.048 C 
ATOM     13  C27 H52 d          11.523  10.628   1.361  0.00  0.00     0.137 C 
ENDBRANCH   2   4
BRANCH   2  14
ATOM     14  C5  H52 d           8.285  10.040   2.916  0.00  0.00     0.091 A 
ATOM     15  C10 H52 d           7.025  10.109   3.675  0.00  0.00     0.006 A 
ATOM     16  C4  H52 d           6.787  10.245   5.103  0.00  0.00    -0.032 A 
ATOM     17  C9  H52 d           5.822  10.024   2.912  0.00  0.00    -0.006 A 
ATOM     18  CM  H52 d           7.816  10.408   6.180  0.00  0.00     0.050 C 
ATOM     19  C3  H52 d           5.514  10.256   5.630  0.00  0.00     0.123 A 
ATOM     20  N2  H52 d           4.421  10.136   4.850  0.00  0.00    -0.272 NA
ATOM     21  C1  H52 d           4.544  10.058   3.547  0.00  0.00     0.128 A 
ATOM     22  C8  H52 d           5.860   9.891   1.496  0.00  0.00     0.014 A 
ATOM     23  C7  H52 d           7.050   9.828   0.828  0.00  0.00     0.002 A 
ATOM     24  C6  H52 d           8.269   9.875   1.547  0.00  0.00     0.026 A 
ENDBRANCH   2  14
TORSDOF 2
ENDMDL
MODEL 5
REMARK VINA RESULT:      -8.1      0.959      2.159
REMARK  2 active torsions:
REMARK  status: ('A' for Active; 'I' for Inactive)
REMARK    1  A    between atoms: S5_2  and  N21_4 
REMARK    2  A    between atoms: S5_2  and  C5_12 
ROOT
ATOM      1  O1  H52 d           9.036  11.452   5.041  0.00  0.00    -0.200 OA
ATOM      2  S5  H52 d           8.912  10.046   4.569  0.00  0.00     0.262 S 
ATOM      3  O2  H52 d           8.565   9.023   5.563  0.00  0.00    -0.200 OA
ENDROOT
BRANCH   2   4
ATOM      4  N21 H52 d          10.321   9.432   3.812  0.00  0.00    -0.301 N 
ATOM      5  C22 H52 d          10.988  10.339   2.787  0.00  0.00     0.117 C 
ATOM      6  C2M H52 d          11.748  11.500   3.404  0.00  0.00     0.034 C 
ATOM      7  C23 H52 d          11.868   9.652   1.736  0.00  0.00     0.257 C 
ATOM      8  N24 H52 d          10.972   8.803   0.856  0.00  0.00    -0.073 N 
ATOM      9  C25 H52 d          10.948   7.384   1.400  0.00  0.00     0.234 C 
ATOM     10  H7  H52 d          11.331   8.798  -0.086  0.00  0.00     0.277 HD
ATOM     11  H8  H52 d          10.039   9.183   0.858  0.00  0.00     0.277 HD
ATOM     12  C26 H52 d          10.089   7.222   2.668  0.00  0.00     0.048 C 
ATOM     13  C27 H52 d          10.682   7.990   3.842  0.00  0.00     0.137 C 
ENDBRANCH   2   4
BRANCH   2  14
ATOM     14  C5  H52 d           7.605   9.959   3.359  0.00  0.00     0.091 A 
ATOM     15  C10 H52 d           6.157   9.965   3.628  0.00  0.00     0.006 A 
ATOM     16  C4  H52 d           5.429  10.113   4.878  0.00  0.00    -0.032 A 
ATOM     17  C9  H52 d           5.303   9.794   2.498  0.00  0.00    -0.006 A 
ATOM     18  CM  H52 d           6.006  10.357   6.239  0.00  0.00     0.050 C 
ATOM     19  C3  H52 d           4.053  10.057   4.929  0.00  0.00     0.123 A 
ATOM     20  N2  H52 d           3.309   9.857   3.822  0.00  0.00    -0.272 NA
ATOM     21  C1  H52 d           3.883   9.762   2.647  0.00  0.00     0.128 A 
ATOM     22  C8  H52 d           5.840   9.638   1.190  0.00  0.00     0.014 A 
ATOM     23  C7  H52 d           7.190   9.635   0.981  0.00  0.00     0.002 A 
ATOM     24  C6  H52 d           8.077   9.768   2.077  0.00  0.00     0.026 A 
ENDBRANCH   2  14
TORSDOF 2
ENDMDL
MODEL 6
REMARK VINA RESULT:      -7.7      2.808      6.900
REMARK  2 active torsions:
REMARK  status: ('A' for Active; 'I' for Inactive)
REMARK    1  A    between atoms: S5_2  and  N21_4 
REMARK    2  A    between atoms: S5_2  and  C5_12 
ROOT
ATOM      1  O1  H52 d           9.554   7.974   0.472  0.00  0.00    -0.200 OA
ATOM      2  S5  H52 d           9.824   8.180   1.921  0.00  0.00     0.262 S 
ATOM      3  O2  H52 d           9.481   7.087   2.839  0.00  0.00    -0.200 OA
ENDROOT
BRANCH   2   4
ATOM      4  N21 H52 d           9.048   9.551   2.593  0.00  0.00    -0.301 N 
ATOM      5  C22 H52 d           9.279   9.799   4.077  0.00  0.00     0.117 C 
ATOM      6  C2M H52 d          10.660  10.344   4.397  0.00  0.00     0.034 C 
ATOM      7  C23 H52 d           8.218  10.635   4.804  0.00  0.00     0.257 C 
ATOM      8  N24 H52 d           6.927   9.841   4.823  0.00  0.00    -0.073 N 
ATOM      9  C25 H52 d           6.077  10.253   3.633  0.00  0.00     0.234 C 
ATOM     10  H7  H52 d           6.428  10.030   5.678  0.00  0.00     0.277 HD
ATOM     11  H8  H52 d           7.135   8.856   4.766  0.00  0.00     0.277 HD
ATOM     12  C26 H52 d           6.570   9.680   2.292  0.00  0.00     0.048 C 
ATOM     13  C27 H52 d           7.929  10.252   1.910  0.00  0.00     0.137 C 
ENDBRANCH   2   4
BRANCH   2  14
ATOM     14  C5  H52 d          11.577   8.424   2.149  0.00  0.00     0.091 A 
ATOM     15  C10 H52 d          12.427   9.396   1.442  0.00  0.00     0.006 A 
ATOM     16  C4  H52 d          12.083  10.423   0.471  0.00  0.00    -0.032 A 
ATOM     17  C9  H52 d          13.824   9.343   1.731  0.00  0.00    -0.006 A 
ATOM     18  CM  H52 d          10.714  10.782  -0.020  0.00  0.00     0.050 C 
ATOM     19  C3  H52 d          13.042  11.223  -0.111  0.00  0.00     0.123 A 
ATOM     20  N2  H52 d          14.351  11.093   0.185  0.00  0.00    -0.272 NA
ATOM     21  C1  H52 d          14.743  10.225   1.086  0.00  0.00     0.128 A 
ATOM     22  C8  H52 d          14.344   8.402   2.663  0.00  0.00     0.014 A 
ATOM     23  C7  H52 d          13.522   7.514   3.298  0.00  0.00     0.002 A 
ATOM     24  C6  H52 d          12.134   7.508   3.016  0.00  0.00     0.026 A 
ENDBRANCH   2  14
TORSDOF 2
ENDMDL
MODEL 7
REMARK VINA RESULT:      -7.7      1.615      3.483
REMARK  2 active torsions:
REMARK  status: ('A' for Active; 'I' for Inactive)
REMARK    1  A    between atoms: S5_2  and  N21_4 
REMARK    2  A    between atoms: S5_2  and  C5_12 
ROOT
ATOM      1  O1  H52 d          10.722  11.337   3.947  0.00  0.00    -0.200 OA
ATOM      2  S5  H52 d          10.181  10.230   4.782  0.00  0.00     0.262 S 
ATOM      3  O2  H52 d          10.370  10.319   6.235  0.00  0.00    -0.200 OA
ENDROOT
BRANCH   2   4
ATOM      4  N21 H52 d          10.790   8.681   4.375  0.00  0.00    -0.301 N 
ATOM      5  C22 H52 d          12.141   8.647   3.675  0.00  0.00     0.117 C 
ATOM      6  C2M H52 d          13.313   8.936   4.596  0.00  0.00     0.034 C 
ATOM      7  C23 H52 d          12.445   7.400   2.836  0.00  0.00     0.257 C 
ATOM      8  N24 H52 d          11.489   7.381   1.659  0.00  0.00    -0.073 N 
ATOM      9  C25 H52 d          10.278   6.537   2.021  0.00  0.00     0.234 C 
ATOM     10  H7  H52 d          11.951   6.984   0.856  0.00  0.00     0.277 HD
ATOM     11  H8  H52 d          11.195   8.321   1.448  0.00  0.00     0.277 HD
ATOM     12  C26 H52 d           9.300   7.237   2.981  0.00  0.00     0.048 C 
ATOM     13  C27 H52 d           9.932   7.467   4.348  0.00  0.00     0.137 C 
ENDBRANCH   2   4
BRANCH   2  14
ATOM     14  C5  H52 d           8.413  10.155   4.562  0.00  0.00     0.091 A 
ATOM     15  C10 H52 d           7.684  10.223   3.284  0.00  0.00     0.006 A 
ATOM     16  C4  H52 d           8.175  10.288   1.917  0.00  0.00    -0.032 A 
ATOM     17  C9  H52 d           6.259  10.234   3.369  0.00  0.00    -0.006 A 
ATOM     18  CM  H52 d           9.604  10.247   1.466  0.00  0.00     0.050 C 
ATOM     19  C3  H52 d           7.320  10.381   0.841  0.00  0.00     0.123 A 
ATOM     20  N2  H52 d           5.981  10.422   0.999  0.00  0.00    -0.272 NA
ATOM     21  C1  H52 d           5.453  10.319   2.194  0.00  0.00     0.128 A 
ATOM     22  C8  H52 d           5.599  10.172   4.628  0.00  0.00     0.014 A 
ATOM     23  C7  H52 d           6.311  10.113   5.792  0.00  0.00     0.002 A 
ATOM     24  C6  H52 d           7.727  10.133   5.758  0.00  0.00     0.026 A 
ENDBRANCH   2  14
TORSDOF 2
ENDMDL
MODEL 8
REMARK VINA RESULT:      -7.6      2.576      4.019
REMARK  2 active torsions:
REMARK  status: ('A' for Active; 'I' for Inactive)
REMARK    1  A    between atoms: S5_2  and  N21_4 
REMARK    2  A    between atoms: S5_2  and  C5_12 
ROOT
ATOM      1  O1  H52 d          12.162  11.724   2.140  0.00  0.00    -0.200 OA
ATOM      2  S5  H52 d          11.952  10.634   3.131  0.00  0.00     0.262 S 
ATOM      3  O2  H52 d          12.450  10.849   4.495  0.00  0.00    -0.200 OA
ENDROOT
BRANCH   2   4
ATOM      4  N21 H52 d          12.626   9.127   2.672  0.00  0.00    -0.301 N 
ATOM      5  C22 H52 d          12.447   7.979   3.654  0.00  0.00     0.117 C 
ATOM      6  C2M H52 d          11.038   7.413   3.680  0.00  0.00     0.034 C 
ATOM      7  C23 H52 d          13.457   6.830   3.554  0.00  0.00     0.257 C 
ATOM      8  N24 H52 d          14.818   7.365   3.955  0.00  0.00    -0.073 N 
ATOM      9  C25 H52 d          15.565   7.799   2.705  0.00  0.00     0.234 C 
ATOM     10  H7  H52 d          15.339   6.643   4.428  0.00  0.00     0.277 HD
ATOM     11  H8  H52 d          14.702   8.154   4.571  0.00  0.00     0.277 HD
ATOM     12  C26 H52 d          15.062   9.128   2.113  0.00  0.00     0.048 C 
ATOM     13  C27 H52 d          13.638   9.000   1.590  0.00  0.00     0.137 C 
ENDBRANCH   2   4
BRANCH   2  14
ATOM     14  C5  H52 d          10.199  10.368   3.329  0.00  0.00     0.091 A 
ATOM     15  C10 H52 d           9.224  10.108   2.257  0.00  0.00     0.006 A 
ATOM     16  C4  H52 d           9.417   9.929   0.826  0.00  0.00    -0.032 A 
ATOM     17  C9  H52 d           7.856  10.017   2.654  0.00  0.00    -0.006 A 
ATOM     18  CM  H52 d          10.718   9.915   0.083  0.00  0.00     0.050 C 
ATOM     19  C3  H52 d           8.357   9.725  -0.030  0.00  0.00     0.123 A 
ATOM     20  N2  H52 d           7.083   9.686   0.413  0.00  0.00    -0.272 NA
ATOM     21  C1  H52 d           6.825   9.790   1.694  0.00  0.00     0.128 A 
ATOM     22  C8  H52 d           7.478  10.162   4.018  0.00  0.00     0.014 A 
ATOM     23  C7  H52 d           8.413  10.406   4.984  0.00  0.00     0.002 A 
ATOM     24  C6  H52 d           9.778  10.537   4.631  0.00  0.00     0.026 A 
ENDBRANCH   2  14
TORSDOF 2
ENDMDL
MODEL 9
REMARK VINA RESULT:      -7.4      2.653      4.434
REMARK  2 active torsions:
REMARK  status: ('A' for Active; 'I' for Inactive)
REMARK    1  A    between atoms: S5_2  and  N21_4 
REMARK    2  A    between atoms: S5_2  and  C5_12 
ROOT
ATOM      1  O1  H52 d          11.270  11.696   3.805  0.00  0.00    -0.200 OA
ATOM      2  S5  H52 d          10.520  10.502   4.280  0.00  0.00     0.262 S 
ATOM      3  O2  H52 d           9.713  10.646   5.499  0.00  0.00    -0.200 OA
ENDROOT
BRANCH   2   4
ATOM      4  N21 H52 d          11.502   9.132   4.588  0.00  0.00    -0.301 N 
ATOM      5  C22 H52 d          12.935   9.410   5.021  0.00  0.00     0.117 C 
ATOM      6  C2M H52 d          13.055   9.897   6.454  0.00  0.00     0.034 C 
ATOM      7  C23 H52 d          13.953   8.290   4.774  0.00  0.00     0.257 C 
ATOM      8  N24 H52 d          14.113   8.123   3.276  0.00  0.00    -0.073 N 
ATOM      9  C25 H52 d          13.170   7.030   2.798  0.00  0.00     0.234 C 
ATOM     10  H7  H52 d          15.064   7.865   3.065  0.00  0.00     0.277 HD
ATOM     11  H8  H52 d          13.889   8.989   2.813  0.00  0.00     0.277 HD
ATOM     12  C26 H52 d          11.697   7.471   2.731  0.00  0.00     0.048 C 
ATOM     13  C27 H52 d          11.142   7.769   4.118  0.00  0.00     0.137 C 
ENDBRANCH   2   4
BRANCH   2  14
ATOM     14  C5  H52 d           9.352  10.019   3.022  0.00  0.00     0.091 A 
ATOM     15  C10 H52 d           9.587   9.995   1.569  0.00  0.00     0.006 A 
ATOM     16  C4  H52 d          10.791  10.271   0.801  0.00  0.00    -0.032 A 
ATOM     17  C9  H52 d           8.467   9.657   0.752  0.00  0.00    -0.006 A 
ATOM     18  CM  H52 d          12.149  10.606   1.337  0.00  0.00     0.050 C 
ATOM     19  C3  H52 d          10.800  10.228  -0.577  0.00  0.00     0.123 A 
ATOM     20  N2  H52 d           9.692   9.934  -1.286  0.00  0.00    -0.272 NA
ATOM     21  C1  H52 d           8.576   9.625  -0.671  0.00  0.00     0.128 A 
ATOM     22  C8  H52 d           7.203   9.352   1.331  0.00  0.00     0.014 A 
ATOM     23  C7  H52 d           7.024   9.387   2.685  0.00  0.00     0.002 A 
ATOM     24  C6  H52 d           8.100   9.750   3.532  0.00  0.00     0.026 A 
ENDBRANCH   2  14
TORSDOF 2
ENDMDL
MODEL 10
REMARK VINA RESULT:      -7.4      3.833      7.315
REMARK  2 active torsions:
REMARK  status: ('A' for Active; 'I' for Inactive)
REMARK    1  A    between atoms: S5_2  and  N21_4 
REMARK    2  A    between atoms: S5_2  and  C5_12 
ROOT
ATOM      1  O1  H52 d          12.989  10.346   5.018  0.00  0.00    -0.200 OA
ATOM      2  S5  H52 d          12.355  10.580   3.692  0.00  0.00     0.262 S 
ATOM      3  O2  H52 d          12.026  11.965   3.330  0.00  0.00    -0.200 OA
ENDROOT
BRANCH   2   4
ATOM      4  N21 H52 d          10.890   9.726   3.453  0.00  0.00    -0.301 N 
ATOM      5  C22 H52 d          10.160   9.269   4.708  0.00  0.00     0.117 C 
ATOM      6  C2M H52 d           9.458  10.393   5.449  0.00  0.00     0.034 C 
ATOM      7  C23 H52 d           9.200   8.084   4.548  0.00  0.00     0.257 C 
ATOM      8  N24 H52 d          10.022   6.857   4.208  0.00  0.00    -0.073 N 
ATOM      9  C25 H52 d          10.071   6.699   2.697  0.00  0.00     0.234 C 
ATOM     10  H7  H52 d           9.596   6.041   4.619  0.00  0.00     0.277 HD
ATOM     11  H8  H52 d          10.957   6.966   4.567  0.00  0.00     0.277 HD
ATOM     12  C26 H52 d          11.016   7.695   2.001  0.00  0.00     0.048 C 
ATOM     13  C27 H52 d          10.517   9.127   2.144  0.00  0.00     0.137 C 
ENDBRANCH   2   4
BRANCH   2  14
ATOM     14  C5  H52 d          13.476  10.036   2.416  0.00  0.00     0.091 A 
ATOM     15  C10 H52 d          14.298   8.814   2.432  0.00  0.00     0.006 A 
ATOM     16  C4  H52 d          14.366   7.733   3.402  0.00  0.00    -0.032 A 
ATOM     17  C9  H52 d          15.189   8.637   1.331  0.00  0.00    -0.006 A 
ATOM     18  CM  H52 d          13.540   7.577   4.642  0.00  0.00     0.050 C 
ATOM     19  C3  H52 d          15.239   6.677   3.253  0.00  0.00     0.123 A 
ATOM     20  N2  H52 d          16.079   6.593   2.202  0.00  0.00    -0.272 NA
ATOM     21  C1  H52 d          16.049   7.500   1.256  0.00  0.00     0.128 A 
ATOM     22  C8  H52 d          15.256   9.594   0.281  0.00  0.00     0.014 A 
ATOM     23  C7  H52 d          14.478  10.717   0.303  0.00  0.00     0.002 A 
ATOM     24  C6  H52 d          13.603  10.951   1.392  0.00  0.00     0.026 A 
ENDBRANCH   2  14
TORSDOF 2
ENDMDL
