MODEL 1
REMARK VINA RESULT:      -5.9      0.000      0.000
REMARK  12 active torsions:
REMARK  status: ('A' for Active; 'I' for Inactive)
REMARK    1  A    between atoms: C1_1  and  O4'_21 
REMARK    2  A    between atoms: C2_2  and  O2_7 
REMARK    3  A    between atoms: C3_3  and  O3_8 
REMARK    4  A    between atoms: C4_4  and  O4_9 
REMARK    5  A    between atoms: C5_5  and  C6_6 
REMARK    6  A    between atoms: C6_6  and  O6_11 
REMARK    7  A    between atoms: C1'_12  and  O1'_18 
REMARK    8  A    between atoms: C2'_13  and  O2'_19 
REMARK    9  A    between atoms: C3'_14  and  O3'_20 
REMARK   10  A    between atoms: O4'_21  and  C4'_15 
REMARK   11  A    between atoms: C5'_16  and  C6'_17 
REMARK   12  A    between atoms: C6'_17  and  O6'_23 
ROOT
ATOM      1  O4' CBI d           2.424  42.519  12.789  0.00  0.00    -0.348 OA
ENDROOT
BRANCH   1   2
ATOM      2  C1  CBI d           2.404  42.576  11.367  0.00  0.00     0.292 C 
ATOM      3  O5  CBI d           3.262  41.580  10.822  0.00  0.00    -0.348 OA
ATOM      4  C5  CBI d           3.447  41.509   9.397  0.00  0.00     0.179 C 
ATOM      5  C4  CBI d           4.070  42.846   8.886  0.00  0.00     0.180 C 
ATOM      6  C3  CBI d           3.224  44.064   9.367  0.00  0.00     0.183 C 
ATOM      7  C2  CBI d           2.986  43.985  10.918  0.00  0.00     0.204 C 
BRANCH   4   8
ATOM      8  C6  CBI d           4.376  40.297   9.170  0.00  0.00     0.198 C 
BRANCH   8   9
ATOM      9  O6  CBI d           4.382  39.211  10.078  0.00  0.00    -0.398 OA
ATOM     10  H11 CBI d           5.258  39.096  10.427  0.00  0.00     0.209 HD
ENDBRANCH   8   9
ENDBRANCH   4   8
BRANCH   5  11
ATOM     11  O4  CBI d           4.202  42.858   7.465  0.00  0.00    -0.390 OA
ATOM     12  H10 CBI d           4.376  41.976   7.157  0.00  0.00     0.210 HD
ENDBRANCH   5  11
BRANCH   6  13
ATOM     13  O3  CBI d           3.952  45.246   9.023  0.00  0.00    -0.390 OA
ATOM     14  H9  CBI d           4.682  45.015   8.461  0.00  0.00     0.210 HD
ENDBRANCH   6  13
BRANCH   7  15
ATOM     15  O2  CBI d           2.116  45.027  11.334  0.00  0.00    -0.388 OA
ATOM     16  H8  CBI d           2.557  45.863  11.238  0.00  0.00     0.210 HD
ENDBRANCH   7  15
ENDBRANCH   1   2
BRANCH   1  17
ATOM     17  C4' CBI d           1.302  41.998  13.458  0.00  0.00     0.187 C 
ATOM     18  C5' CBI d           1.060  40.448  13.208  0.00  0.00     0.180 C 
ATOM     19  O5' CBI d          -0.109  39.985  13.890  0.00  0.00    -0.349 OA
ATOM     20  C1' CBI d          -1.335  40.634  13.577  0.00  0.00     0.288 C 
ATOM     21  C2' CBI d          -1.278  42.180  13.682  0.00  0.00     0.204 C 
ATOM     22  C3' CBI d          -0.001  42.784  13.016  0.00  0.00     0.183 C 
BRANCH  18  23
ATOM     23  C6' CBI d           2.262  39.608  13.714  0.00  0.00     0.198 C 
BRANCH  23  24
ATOM     24  O6' CBI d           3.319  39.597  12.768  0.00  0.00    -0.398 OA
ATOM     25  H22 CBI d           3.864  40.365  12.895  0.00  0.00     0.209 HD
ENDBRANCH  23  24
ENDBRANCH  18  23
BRANCH  20  26
ATOM     26  O1' CBI d          -2.266  40.047  14.463  0.00  0.00    -0.369 OA
ATOM     27  H19 CBI d          -2.937  40.683  14.682  0.00  0.00     0.212 HD
ENDBRANCH  20  26
BRANCH  21  28
ATOM     28  O2' CBI d          -2.471  42.731  13.154  0.00  0.00    -0.388 OA
ATOM     29  H20 CBI d          -2.495  43.664  13.335  0.00  0.00     0.210 HD
ENDBRANCH  21  28
BRANCH  22  30
ATOM     30  O3' CBI d           0.156  44.172  13.289  0.00  0.00    -0.390 OA
ATOM     31  H21 CBI d           0.703  44.282  14.058  0.00  0.00     0.210 HD
ENDBRANCH  22  30
ENDBRANCH   1  17
TORSDOF 12
ENDMDL
MODEL 2
REMARK VINA RESULT:      -5.7      2.073      6.084
REMARK  12 active torsions:
REMARK  status: ('A' for Active; 'I' for Inactive)
REMARK    1  A    between atoms: C1_1  and  O4'_21 
REMARK    2  A    between atoms: C2_2  and  O2_7 
REMARK    3  A    between atoms: C3_3  and  O3_8 
REMARK    4  A    between atoms: C4_4  and  O4_9 
REMARK    5  A    between atoms: C5_5  and  C6_6 
REMARK    6  A    between atoms: C6_6  and  O6_11 
REMARK    7  A    between atoms: C1'_12  and  O1'_18 
REMARK    8  A    between atoms: C2'_13  and  O2'_19 
REMARK    9  A    between atoms: C3'_14  and  O3'_20 
REMARK   10  A    between atoms: O4'_21  and  C4'_15 
REMARK   11  A    between atoms: C5'_16  and  C6'_17 
REMARK   12  A    between atoms: C6'_17  and  O6'_23 
ROOT
ATOM      1  O4' CBI d           0.656  41.664  11.023  0.00  0.00    -0.348 OA
ENDROOT
BRANCH   1   2
ATOM      2  C1  CBI d           0.590  40.764  12.124  0.00  0.00     0.292 C 
ATOM      3  O5  CBI d           1.578  41.098  13.093  0.00  0.00    -0.348 OA
ATOM      4  C5  CBI d           1.735  40.269  14.258  0.00  0.00     0.179 C 
ATOM      5  C4  CBI d           2.131  38.825  13.818  0.00  0.00     0.180 C 
ATOM      6  C3  CBI d           1.121  38.275  12.766  0.00  0.00     0.183 C 
ATOM      7  C2  CBI d           0.937  39.306  11.595  0.00  0.00     0.204 C 
BRANCH   4   8
ATOM      8  C6  CBI d           2.833  40.956  15.099  0.00  0.00     0.198 C 
BRANCH   8   9
ATOM      9  O6  CBI d           3.158  42.317  14.888  0.00  0.00    -0.398 OA
ATOM     10  H11 CBI d           2.562  42.688  14.247  0.00  0.00     0.209 HD
ENDBRANCH   8   9
ENDBRANCH   4   8
BRANCH   5  11
ATOM     11  O4  CBI d           2.223  37.940  14.934  0.00  0.00    -0.390 OA
ATOM     12  H10 CBI d           1.364  37.581  15.125  0.00  0.00     0.210 HD
ENDBRANCH   5  11
BRANCH   6  13
ATOM     13  O3  CBI d           1.649  37.038  12.279  0.00  0.00    -0.390 OA
ATOM     14  H9  CBI d           1.328  36.883  11.399  0.00  0.00     0.210 HD
ENDBRANCH   6  13
BRANCH   7  15
ATOM     15  O2  CBI d          -0.072  38.859  10.701  0.00  0.00    -0.388 OA
ATOM     16  H8  CBI d          -0.013  37.915  10.606  0.00  0.00     0.210 HD
ENDBRANCH   7  15
ENDBRANCH   1   2
BRANCH   1  17
ATOM     17  C4' CBI d           1.492  42.790  11.124  0.00  0.00     0.187 C 
ATOM     18  C5' CBI d           0.716  44.158  11.344  0.00  0.00     0.180 C 
ATOM     19  O5' CBI d           1.618  45.266  11.410  0.00  0.00    -0.349 OA
ATOM     20  C1' CBI d           2.468  45.469  10.289  0.00  0.00     0.288 C 
ATOM     21  C2' CBI d           3.262  44.208   9.859  0.00  0.00     0.204 C 
ATOM     22  C3' CBI d           2.375  42.923   9.815  0.00  0.00     0.183 C 
BRANCH  18  23
ATOM     23  C6' CBI d          -0.093  44.132  12.669  0.00  0.00     0.198 C 
BRANCH  23  24
ATOM     24  O6' CBI d           0.758  43.950  13.789  0.00  0.00    -0.398 OA
ATOM     25  H22 CBI d           0.323  44.273  14.570  0.00  0.00     0.209 HD
ENDBRANCH  23  24
ENDBRANCH  18  23
BRANCH  20  26
ATOM     26  O1' CBI d           3.296  46.544  10.682  0.00  0.00    -0.369 OA
ATOM     27  H19 CBI d           4.041  46.600  10.094  0.00  0.00     0.212 HD
ENDBRANCH  20  26
BRANCH  21  28
ATOM     28  O2' CBI d           3.909  44.458   8.625  0.00  0.00    -0.388 OA
ATOM     29  H20 CBI d           4.103  43.632   8.197  0.00  0.00     0.210 HD
ENDBRANCH  21  28
BRANCH  22  30
ATOM     30  O3' CBI d           3.138  41.737   9.623  0.00  0.00    -0.390 OA
ATOM     31  H21 CBI d           3.357  41.363  10.469  0.00  0.00     0.210 HD
ENDBRANCH  22  30
ENDBRANCH   1  17
TORSDOF 12
ENDMDL
MODEL 3
REMARK VINA RESULT:      -5.7      2.205      6.144
REMARK  12 active torsions:
REMARK  status: ('A' for Active; 'I' for Inactive)
REMARK    1  A    between atoms: C1_1  and  O4'_21 
REMARK    2  A    between atoms: C2_2  and  O2_7 
REMARK    3  A    between atoms: C3_3  and  O3_8 
REMARK    4  A    between atoms: C4_4  and  O4_9 
REMARK    5  A    between atoms: C5_5  and  C6_6 
REMARK    6  A    between atoms: C6_6  and  O6_11 
REMARK    7  A    between atoms: C1'_12  and  O1'_18 
REMARK    8  A    between atoms: C2'_13  and  O2'_19 
REMARK    9  A    between atoms: C3'_14  and  O3'_20 
REMARK   10  A    between atoms: O4'_21  and  C4'_15 
REMARK   11  A    between atoms: C5'_16  and  C6'_17 
REMARK   12  A    between atoms: C6'_17  and  O6'_23 
ROOT
ATOM      1  O4' CBI d           2.283  41.425   9.947  0.00  0.00    -0.348 OA
ENDROOT
BRANCH   1   2
ATOM      2  C1  CBI d           2.725  41.644  11.282  0.00  0.00     0.292 C 
ATOM      3  O5  CBI d           2.636  40.439  12.035  0.00  0.00    -0.348 OA
ATOM      4  C5  CBI d           2.967  40.454  13.435  0.00  0.00     0.179 C 
ATOM      5  C4  CBI d           2.002  41.424  14.186  0.00  0.00     0.180 C 
ATOM      6  C3  CBI d           2.000  42.829  13.509  0.00  0.00     0.183 C 
ATOM      7  C2  CBI d           1.743  42.690  11.965  0.00  0.00     0.204 C 
BRANCH   4   8
ATOM      8  C6  CBI d           2.816  38.990  13.901  0.00  0.00     0.198 C 
BRANCH   8   9
ATOM      9  O6  CBI d           3.958  38.194  14.163  0.00  0.00    -0.398 OA
ATOM     10  H11 CBI d           4.401  38.523  14.936  0.00  0.00     0.209 HD
ENDBRANCH   8   9
ENDBRANCH   4   8
BRANCH   5  11
ATOM     11  O4  CBI d           2.338  41.536  15.569  0.00  0.00    -0.390 OA
ATOM     12  H10 CBI d           2.597  40.684  15.901  0.00  0.00     0.210 HD
ENDBRANCH   5  11
BRANCH   6  13
ATOM     13  O3  CBI d           0.966  43.596  14.131  0.00  0.00    -0.390 OA
ATOM     14  H9  CBI d           1.147  43.675  15.060  0.00  0.00     0.210 HD
ENDBRANCH   6  13
BRANCH   7  15
ATOM     15  O2  CBI d           1.861  43.956  11.332  0.00  0.00    -0.388 OA
ATOM     16  H8  CBI d           1.273  43.992  10.587  0.00  0.00     0.210 HD
ENDBRANCH   7  15
ENDBRANCH   1   2
BRANCH   1  17
ATOM     17  C4' CBI d           3.246  41.197   8.948  0.00  0.00     0.187 C 
ATOM     18  C5' CBI d           3.960  39.781   9.045  0.00  0.00     0.180 C 
ATOM     19  O5' CBI d           4.947  39.622   8.021  0.00  0.00    -0.349 OA
ATOM     20  C1' CBI d           5.988  40.589   7.977  0.00  0.00     0.288 C 
ATOM     21  C2' CBI d           5.489  42.057   7.961  0.00  0.00     0.204 C 
ATOM     22  C3' CBI d           4.360  42.322   9.008  0.00  0.00     0.183 C 
BRANCH  18  23
ATOM     23  C6' CBI d           2.933  38.629   8.891  0.00  0.00     0.198 C 
BRANCH  23  24
ATOM     24  O6' CBI d           2.275  38.357  10.117  0.00  0.00    -0.398 OA
ATOM     25  H22 CBI d           1.999  39.174  10.515  0.00  0.00     0.209 HD
ENDBRANCH  23  24
ENDBRANCH  18  23
BRANCH  20  26
ATOM     26  O1' CBI d           6.728  40.238   6.826  0.00  0.00    -0.369 OA
ATOM     27  H19 CBI d           6.461  40.789   6.099  0.00  0.00     0.212 HD
ENDBRANCH  20  26
BRANCH  21  28
ATOM     28  O2' CBI d           6.592  42.930   8.126  0.00  0.00    -0.388 OA
ATOM     29  H20 CBI d           7.213  42.791   7.420  0.00  0.00     0.210 HD
ENDBRANCH  21  28
BRANCH  22  30
ATOM     30  O3' CBI d           3.761  43.604   8.856  0.00  0.00    -0.390 OA
ATOM     31  H21 CBI d           3.407  43.888   9.691  0.00  0.00     0.210 HD
ENDBRANCH  22  30
ENDBRANCH   1  17
TORSDOF 12
ENDMDL
MODEL 4
REMARK VINA RESULT:      -5.7      2.283      4.740
REMARK  12 active torsions:
REMARK  status: ('A' for Active; 'I' for Inactive)
REMARK    1  A    between atoms: C1_1  and  O4'_21 
REMARK    2  A    between atoms: C2_2  and  O2_7 
REMARK    3  A    between atoms: C3_3  and  O3_8 
REMARK    4  A    between atoms: C4_4  and  O4_9 
REMARK    5  A    between atoms: C5_5  and  C6_6 
REMARK    6  A    between atoms: C6_6  and  O6_11 
REMARK    7  A    between atoms: C1'_12  and  O1'_18 
REMARK    8  A    between atoms: C2'_13  and  O2'_19 
REMARK    9  A    between atoms: C3'_14  and  O3'_20 
REMARK   10  A    between atoms: O4'_21  and  C4'_15 
REMARK   11  A    between atoms: C5'_16  and  C6'_17 
REMARK   12  A    between atoms: C6'_17  and  O6'_23 
ROOT
ATOM      1  O4' CBI d           4.327  43.329   9.647  0.00  0.00    -0.348 OA
ENDROOT
BRANCH   1   2
ATOM      2  C1  CBI d           4.497  42.639   8.415  0.00  0.00     0.292 C 
ATOM      3  O5  CBI d           3.571  41.561   8.320  0.00  0.00    -0.348 OA
ATOM      4  C5  CBI d           3.620  40.684   7.181  0.00  0.00     0.179 C 
ATOM      5  C4  CBI d           5.010  39.975   7.131  0.00  0.00     0.180 C 
ATOM      6  C3  CBI d           6.163  41.022   7.188  0.00  0.00     0.183 C 
ATOM      7  C2  CBI d           5.953  42.000   8.400  0.00  0.00     0.204 C 
BRANCH   4   8
ATOM      8  C6  CBI d           2.455  39.692   7.385  0.00  0.00     0.198 C 
BRANCH   8   9
ATOM      9  O6  CBI d           2.700  38.301   7.490  0.00  0.00    -0.398 OA
ATOM     10  H11 CBI d           2.752  37.924   6.619  0.00  0.00     0.209 HD
ENDBRANCH   8   9
ENDBRANCH   4   8
BRANCH   5  11
ATOM     11  O4  CBI d           5.139  39.150   5.973  0.00  0.00    -0.390 OA
ATOM     12  H10 CBI d           4.893  39.648   5.202  0.00  0.00     0.210 HD
ENDBRANCH   5  11
BRANCH   6  13
ATOM     13  O3  CBI d           7.387  40.296   7.325  0.00  0.00    -0.390 OA
ATOM     14  H9  CBI d           7.402  39.859   8.168  0.00  0.00     0.210 HD
ENDBRANCH   6  13
BRANCH   7  15
ATOM     15  O2  CBI d           6.935  43.025   8.380  0.00  0.00    -0.388 OA
ATOM     16  H8  CBI d           6.788  43.617   9.108  0.00  0.00     0.210 HD
ENDBRANCH   7  15
ENDBRANCH   1   2
BRANCH   1  17
ATOM     17  C4' CBI d           3.020  43.559  10.114  0.00  0.00     0.187 C 
ATOM     18  C5' CBI d           2.736  45.065  10.532  0.00  0.00     0.180 C 
ATOM     19  O5' CBI d           1.402  45.229  11.023  0.00  0.00    -0.349 OA
ATOM     20  C1' CBI d           1.027  44.430  12.138  0.00  0.00     0.288 C 
ATOM     21  C2' CBI d           1.306  42.916  11.955  0.00  0.00     0.204 C 
ATOM     22  C3' CBI d           2.723  42.631  11.363  0.00  0.00     0.183 C 
BRANCH  18  23
ATOM     23  C6' CBI d           2.911  46.021   9.322  0.00  0.00     0.198 C 
BRANCH  23  24
ATOM     24  O6' CBI d           4.261  46.428   9.177  0.00  0.00    -0.398 OA
ATOM     25  H22 CBI d           4.487  47.027   9.880  0.00  0.00     0.209 HD
ENDBRANCH  23  24
ENDBRANCH  18  23
BRANCH  20  26
ATOM     26  O1' CBI d          -0.342  44.727  12.322  0.00  0.00    -0.369 OA
ATOM     27  H19 CBI d          -0.440  45.324  13.055  0.00  0.00     0.212 HD
ENDBRANCH  20  26
BRANCH  21  28
ATOM     28  O2' CBI d           1.093  42.246  13.185  0.00  0.00    -0.388 OA
ATOM     29  H20 CBI d           1.931  42.024  13.573  0.00  0.00     0.210 HD
ENDBRANCH  21  28
BRANCH  22  30
ATOM     30  O3' CBI d           2.903  41.265  11.004  0.00  0.00    -0.390 OA
ATOM     31  H21 CBI d           2.182  40.751  11.348  0.00  0.00     0.210 HD
ENDBRANCH  22  30
ENDBRANCH   1  17
TORSDOF 12
ENDMDL
MODEL 5
REMARK VINA RESULT:      -5.5      2.177      6.877
REMARK  12 active torsions:
REMARK  status: ('A' for Active; 'I' for Inactive)
REMARK    1  A    between atoms: C1_1  and  O4'_21 
REMARK    2  A    between atoms: C2_2  and  O2_7 
REMARK    3  A    between atoms: C3_3  and  O3_8 
REMARK    4  A    between atoms: C4_4  and  O4_9 
REMARK    5  A    between atoms: C5_5  and  C6_6 
REMARK    6  A    between atoms: C6_6  and  O6_11 
REMARK    7  A    between atoms: C1'_12  and  O1'_18 
REMARK    8  A    between atoms: C2'_13  and  O2'_19 
REMARK    9  A    between atoms: C3'_14  and  O3'_20 
REMARK   10  A    between atoms: O4'_21  and  C4'_15 
REMARK   11  A    between atoms: C5'_16  and  C6'_17 
REMARK   12  A    between atoms: C6'_17  and  O6'_23 
ROOT
ATOM      1  O4' CBI d           1.907  40.606   9.808  0.00  0.00    -0.348 OA
ENDROOT
BRANCH   1   2
ATOM      2  C1  CBI d           1.408  40.339  11.114  0.00  0.00     0.292 C 
ATOM      3  O5  CBI d           1.809  41.366  12.014  0.00  0.00    -0.348 OA
ATOM      4  C5  CBI d           1.473  41.256  13.409  0.00  0.00     0.179 C 
ATOM      5  C4  CBI d           2.134  39.974  14.003  0.00  0.00     0.180 C 
ATOM      6  C3  CBI d           1.767  38.721  13.150  0.00  0.00     0.183 C 
ATOM      7  C2  CBI d           2.067  38.988  11.632  0.00  0.00     0.204 C 
BRANCH   4   8
ATOM      8  C6  CBI d           2.005  42.553  14.057  0.00  0.00     0.198 C 
BRANCH   8   9
ATOM      9  O6  CBI d           2.687  42.514  15.297  0.00  0.00    -0.398 OA
ATOM     10  H11 CBI d           2.358  41.788  15.815  0.00  0.00     0.209 HD
ENDBRANCH   8   9
ENDBRANCH   4   8
BRANCH   5  11
ATOM     11  O4  CBI d           1.766  39.775  15.368  0.00  0.00    -0.390 OA
ATOM     12  H10 CBI d           1.701  40.617  15.804  0.00  0.00     0.210 HD
ENDBRANCH   5  11
BRANCH   6  13
ATOM     13  O3  CBI d           2.551  37.631  13.641  0.00  0.00    -0.390 OA
ATOM     14  H9  CBI d           2.408  37.536  14.576  0.00  0.00     0.210 HD
ENDBRANCH   6  13
BRANCH   7  15
ATOM     15  O2  CBI d           1.621  37.895  10.843  0.00  0.00    -0.388 OA
ATOM     16  H8  CBI d           0.677  37.819  10.914  0.00  0.00     0.210 HD
ENDBRANCH   7  15
ENDBRANCH   1   2
BRANCH   1  17
ATOM     17  C4' CBI d           3.218  41.098   9.677  0.00  0.00     0.187 C 
ATOM     18  C5' CBI d           3.302  42.571   9.088  0.00  0.00     0.180 C 
ATOM     19  O5' CBI d           4.659  43.003   8.951  0.00  0.00    -0.349 OA
ATOM     20  C1' CBI d           5.509  42.203   8.141  0.00  0.00     0.288 C 
ATOM     21  C2' CBI d           5.502  40.697   8.510  0.00  0.00     0.204 C 
ATOM     22  C3' CBI d           4.062  40.138   8.741  0.00  0.00     0.183 C 
BRANCH  18  23
ATOM     23  C6' CBI d           2.577  43.583  10.014  0.00  0.00     0.198 C 
BRANCH  23  24
ATOM     24  O6' CBI d           3.329  43.834  11.191  0.00  0.00    -0.398 OA
ATOM     25  H22 CBI d           3.367  44.771  11.347  0.00  0.00     0.209 HD
ENDBRANCH  23  24
ENDBRANCH  18  23
BRANCH  20  26
ATOM     26  O1' CBI d           6.778  42.807   8.281  0.00  0.00    -0.369 OA
ATOM     27  H19 CBI d           7.019  42.826   9.200  0.00  0.00     0.212 HD
ENDBRANCH  20  26
BRANCH  21  28
ATOM     28  O2' CBI d           6.210  39.968   7.524  0.00  0.00    -0.388 OA
ATOM     29  H20 CBI d           5.676  39.240   7.225  0.00  0.00     0.210 HD
ENDBRANCH  21  28
BRANCH  22  30
ATOM     30  O3' CBI d           4.064  38.820   9.277  0.00  0.00    -0.390 OA
ATOM     31  H21 CBI d           3.603  38.816  10.108  0.00  0.00     0.210 HD
ENDBRANCH  22  30
ENDBRANCH   1  17
TORSDOF 12
ENDMDL
MODEL 6
REMARK VINA RESULT:      -5.4      1.855      2.540
REMARK  12 active torsions:
REMARK  status: ('A' for Active; 'I' for Inactive)
REMARK    1  A    between atoms: C1_1  and  O4'_21 
REMARK    2  A    between atoms: C2_2  and  O2_7 
REMARK    3  A    between atoms: C3_3  and  O3_8 
REMARK    4  A    between atoms: C4_4  and  O4_9 
REMARK    5  A    between atoms: C5_5  and  C6_6 
REMARK    6  A    between atoms: C6_6  and  O6_11 
REMARK    7  A    between atoms: C1'_12  and  O1'_18 
REMARK    8  A    between atoms: C2'_13  and  O2'_19 
REMARK    9  A    between atoms: C3'_14  and  O3'_20 
REMARK   10  A    between atoms: O4'_21  and  C4'_15 
REMARK   11  A    between atoms: C5'_16  and  C6'_17 
REMARK   12  A    between atoms: C6'_17  and  O6'_23 
ROOT
ATOM      1  O4' CBI d           2.993  41.089  11.661  0.00  0.00    -0.348 OA
ENDROOT
BRANCH   1   2
ATOM      2  C1  CBI d           2.764  41.296  10.272  0.00  0.00     0.292 C 
ATOM      3  O5  CBI d           2.490  40.057   9.627  0.00  0.00    -0.348 OA
ATOM      4  C5  CBI d           2.300  40.028   8.201  0.00  0.00     0.179 C 
ATOM      5  C4  CBI d           3.598  40.527   7.494  0.00  0.00     0.180 C 
ATOM      6  C3  CBI d           4.033  41.913   8.059  0.00  0.00     0.183 C 
ATOM      7  C2  CBI d           4.100  41.867   9.627  0.00  0.00     0.204 C 
BRANCH   4   8
ATOM      8  C6  CBI d           1.970  38.556   7.868  0.00  0.00     0.198 C 
BRANCH   8   9
ATOM      9  O6  CBI d           1.865  38.127   6.523  0.00  0.00    -0.398 OA
ATOM     10  H11 CBI d           2.733  37.943   6.182  0.00  0.00     0.209 HD
ENDBRANCH   8   9
ENDBRANCH   4   8
BRANCH   5  11
ATOM     11  O4  CBI d           3.435  40.592   6.077  0.00  0.00    -0.390 OA
ATOM     12  H10 CBI d           3.560  39.726   5.705  0.00  0.00     0.210 HD
ENDBRANCH   5  11
BRANCH   6  13
ATOM     13  O3  CBI d           5.315  42.214   7.502  0.00  0.00    -0.390 OA
ATOM     14  H9  CBI d           5.202  42.665   6.674  0.00  0.00     0.210 HD
ENDBRANCH   6  13
BRANCH   7  15
ATOM     15  O2  CBI d           4.377  43.160  10.145  0.00  0.00    -0.388 OA
ATOM     16  H8  CBI d           4.047  43.818   9.545  0.00  0.00     0.210 HD
ENDBRANCH   7  15
ENDBRANCH   1   2
BRANCH   1  17
ATOM     17  C4' CBI d           2.013  41.515  12.575  0.00  0.00     0.187 C 
ATOM     18  C5' CBI d           0.680  40.652  12.547  0.00  0.00     0.180 C 
ATOM     19  O5' CBI d          -0.286  41.152  13.477  0.00  0.00    -0.349 OA
ATOM     20  C1' CBI d          -0.688  42.507  13.320  0.00  0.00     0.288 C 
ATOM     21  C2' CBI d           0.491  43.511  13.240  0.00  0.00     0.204 C 
ATOM     22  C3' CBI d           1.634  43.027  12.292  0.00  0.00     0.183 C 
BRANCH  18  23
ATOM     23  C6' CBI d           0.967  39.173  12.918  0.00  0.00     0.198 C 
BRANCH  23  24
ATOM     24  O6' CBI d           1.766  38.540  11.933  0.00  0.00    -0.398 OA
ATOM     25  H22 CBI d           2.063  37.698  12.260  0.00  0.00     0.209 HD
ENDBRANCH  23  24
ENDBRANCH  18  23
BRANCH  20  26
ATOM     26  O1' CBI d          -1.544  42.736  14.419  0.00  0.00    -0.369 OA
ATOM     27  H19 CBI d          -1.041  43.092  15.143  0.00  0.00     0.212 HD
ENDBRANCH  20  26
BRANCH  21  28
ATOM     28  O2' CBI d          -0.003  44.788  12.879  0.00  0.00    -0.388 OA
ATOM     29  H20 CBI d          -0.220  44.793  11.954  0.00  0.00     0.210 HD
ENDBRANCH  21  28
BRANCH  22  30
ATOM     30  O3' CBI d           2.798  43.842  12.375  0.00  0.00    -0.390 OA
ATOM     31  H21 CBI d           3.532  43.385  11.979  0.00  0.00     0.210 HD
ENDBRANCH  22  30
ENDBRANCH   1  17
TORSDOF 12
ENDMDL
MODEL 7
REMARK VINA RESULT:      -5.4      2.384      5.293
REMARK  12 active torsions:
REMARK  status: ('A' for Active; 'I' for Inactive)
REMARK    1  A    between atoms: C1_1  and  O4'_21 
REMARK    2  A    between atoms: C2_2  and  O2_7 
REMARK    3  A    between atoms: C3_3  and  O3_8 
REMARK    4  A    between atoms: C4_4  and  O4_9 
REMARK    5  A    between atoms: C5_5  and  C6_6 
REMARK    6  A    between atoms: C6_6  and  O6_11 
REMARK    7  A    between atoms: C1'_12  and  O1'_18 
REMARK    8  A    between atoms: C2'_13  and  O2'_19 
REMARK    9  A    between atoms: C3'_14  and  O3'_20 
REMARK   10  A    between atoms: O4'_21  and  C4'_15 
REMARK   11  A    between atoms: C5'_16  and  C6'_17 
REMARK   12  A    between atoms: C6'_17  and  O6'_23 
ROOT
ATOM      1  O4' CBI d           1.326  42.731  12.456  0.00  0.00    -0.348 OA
ENDROOT
BRANCH   1   2
ATOM      2  C1  CBI d           0.022  42.198  12.252  0.00  0.00     0.292 C 
ATOM      3  O5  CBI d          -0.321  42.248  10.872  0.00  0.00    -0.348 OA
ATOM      4  C5  CBI d          -1.631  41.825  10.453  0.00  0.00     0.179 C 
ATOM      5  C4  CBI d          -2.710  42.729  11.129  0.00  0.00     0.180 C 
ATOM      6  C3  CBI d          -2.506  42.763  12.674  0.00  0.00     0.183 C 
ATOM      7  C2  CBI d          -1.017  43.123  13.021  0.00  0.00     0.204 C 
BRANCH   4   8
ATOM      8  C6  CBI d          -1.626  41.958   8.914  0.00  0.00     0.198 C 
BRANCH   8   9
ATOM      9  O6  CBI d          -2.599  42.745   8.254  0.00  0.00    -0.398 OA
ATOM     10  H11 CBI d          -3.466  42.427   8.478  0.00  0.00     0.209 HD
ENDBRANCH   8   9
ENDBRANCH   4   8
BRANCH   5  11
ATOM     11  O4  CBI d          -4.033  42.301  10.807  0.00  0.00    -0.390 OA
ATOM     12  H10 CBI d          -4.026  41.859   9.966  0.00  0.00     0.210 HD
ENDBRANCH   5  11
BRANCH   6  13
ATOM     13  O3  CBI d          -3.404  43.746  13.197  0.00  0.00    -0.390 OA
ATOM     14  H9  CBI d          -4.299  43.453  13.073  0.00  0.00     0.210 HD
ENDBRANCH   6  13
BRANCH   7  15
ATOM     15  O2  CBI d          -0.805  43.036  14.422  0.00  0.00    -0.388 OA
ATOM     16  H8  CBI d           0.073  42.713  14.589  0.00  0.00     0.210 HD
ENDBRANCH   7  15
ENDBRANCH   1   2
BRANCH   1  17
ATOM     17  C4' CBI d           2.339  41.871  12.918  0.00  0.00     0.187 C 
ATOM     18  C5' CBI d           2.409  40.480  12.154  0.00  0.00     0.180 C 
ATOM     19  O5' CBI d           3.438  39.642  12.689  0.00  0.00    -0.349 OA
ATOM     20  C1' CBI d           3.357  39.330  14.074  0.00  0.00     0.288 C 
ATOM     21  C2' CBI d           3.199  40.569  14.993  0.00  0.00     0.204 C 
ATOM     22  C3' CBI d           2.135  41.582  14.463  0.00  0.00     0.183 C 
BRANCH  18  23
ATOM     23  C6' CBI d           2.709  40.688  10.646  0.00  0.00     0.198 C 
BRANCH  23  24
ATOM     24  O6' CBI d           3.464  41.868  10.428  0.00  0.00    -0.398 OA
ATOM     25  H22 CBI d           3.134  42.316   9.658  0.00  0.00     0.209 HD
ENDBRANCH  23  24
ENDBRANCH  18  23
BRANCH  20  26
ATOM     26  O1' CBI d           4.537  38.595  14.325  0.00  0.00    -0.369 OA
ATOM     27  H19 CBI d           5.287  39.177  14.280  0.00  0.00     0.212 HD
ENDBRANCH  20  26
BRANCH  21  28
ATOM     28  O2' CBI d           2.922  40.141  16.314  0.00  0.00    -0.388 OA
ATOM     29  H20 CBI d           2.114  39.640  16.321  0.00  0.00     0.210 HD
ENDBRANCH  21  28
BRANCH  22  30
ATOM     30  O3' CBI d           2.135  42.807  15.188  0.00  0.00    -0.390 OA
ATOM     31  H21 CBI d           3.032  43.076  15.354  0.00  0.00     0.210 HD
ENDBRANCH  22  30
ENDBRANCH   1  17
TORSDOF 12
ENDMDL
MODEL 8
REMARK VINA RESULT:      -5.1      2.173      4.391
REMARK  12 active torsions:
REMARK  status: ('A' for Active; 'I' for Inactive)
REMARK    1  A    between atoms: C1_1  and  O4'_21 
REMARK    2  A    between atoms: C2_2  and  O2_7 
REMARK    3  A    between atoms: C3_3  and  O3_8 
REMARK    4  A    between atoms: C4_4  and  O4_9 
REMARK    5  A    between atoms: C5_5  and  C6_6 
REMARK    6  A    between atoms: C6_6  and  O6_11 
REMARK    7  A    between atoms: C1'_12  and  O1'_18 
REMARK    8  A    between atoms: C2'_13  and  O2'_19 
REMARK    9  A    between atoms: C3'_14  and  O3'_20 
REMARK   10  A    between atoms: O4'_21  and  C4'_15 
REMARK   11  A    between atoms: C5'_16  and  C6'_17 
REMARK   12  A    between atoms: C6'_17  and  O6'_23 
ROOT
ATOM      1  O4' CBI d           1.968  42.567   9.031  0.00  0.00    -0.348 OA
ENDROOT
BRANCH   1   2
ATOM      2  C1  CBI d           3.016  41.611   8.921  0.00  0.00     0.292 C 
ATOM      3  O5  CBI d           4.207  42.237   8.455  0.00  0.00    -0.348 OA
ATOM      4  C5  CBI d           5.375  41.435   8.202  0.00  0.00     0.179 C 
ATOM      5  C4  CBI d           5.055  40.388   7.090  0.00  0.00     0.180 C 
ATOM      6  C3  CBI d           3.779  39.571   7.456  0.00  0.00     0.183 C 
ATOM      7  C2  CBI d           2.598  40.539   7.824  0.00  0.00     0.204 C 
BRANCH   4   8
ATOM      8  C6  CBI d           6.469  42.438   7.776  0.00  0.00     0.198 C 
BRANCH   8   9
ATOM      9  O6  CBI d           7.386  42.953   8.724  0.00  0.00    -0.398 OA
ATOM     10  H11 CBI d           7.561  43.866   8.530  0.00  0.00     0.209 HD
ENDBRANCH   8   9
ENDBRANCH   4   8
BRANCH   5  11
ATOM     11  O4  CBI d           6.159  39.514   6.855  0.00  0.00    -0.390 OA
ATOM     12  H10 CBI d           6.761  39.561   7.589  0.00  0.00     0.210 HD
ENDBRANCH   5  11
BRANCH   6  13
ATOM     13  O3  CBI d           3.447  38.772   6.317  0.00  0.00    -0.390 OA
ATOM     14  H9  CBI d           2.746  38.174   6.544  0.00  0.00     0.210 HD
ENDBRANCH   6  13
BRANCH   7  15
ATOM     15  O2  CBI d           1.475  39.795   8.273  0.00  0.00    -0.388 OA
ATOM     16  H8  CBI d           1.741  38.903   8.459  0.00  0.00     0.210 HD
ENDBRANCH   7  15
ENDBRANCH   1   2
BRANCH   1  17
ATOM     17  C4' CBI d           1.516  42.924  10.314  0.00  0.00     0.187 C 
ATOM     18  C5' CBI d           2.556  43.780  11.155  0.00  0.00     0.180 C 
ATOM     19  O5' CBI d           2.050  44.086  12.457  0.00  0.00    -0.349 OA
ATOM     20  C1' CBI d           1.686  42.985  13.280  0.00  0.00     0.288 C 
ATOM     21  C2' CBI d           0.726  41.976  12.599  0.00  0.00     0.204 C 
ATOM     22  C3' CBI d           1.159  41.620  11.141  0.00  0.00     0.183 C 
BRANCH  18  23
ATOM     23  C6' CBI d           2.872  45.124  10.447  0.00  0.00     0.198 C 
BRANCH  23  24
ATOM     24  O6' CBI d           3.826  44.950   9.411  0.00  0.00    -0.398 OA
ATOM     25  H22 CBI d           3.809  45.706   8.836  0.00  0.00     0.209 HD
ENDBRANCH  23  24
ENDBRANCH  18  23
BRANCH  20  26
ATOM     26  O1' CBI d           1.135  43.590  14.432  0.00  0.00    -0.369 OA
ATOM     27  H19 CBI d           0.981  44.512  14.261  0.00  0.00     0.212 HD
ENDBRANCH  20  26
BRANCH  21  28
ATOM     28  O2' CBI d           0.594  40.827  13.416  0.00  0.00    -0.388 OA
ATOM     29  H20 CBI d           0.180  40.131  12.919  0.00  0.00     0.210 HD
ENDBRANCH  21  28
BRANCH  22  30
ATOM     30  O3' CBI d           0.176  40.861  10.446  0.00  0.00    -0.390 OA
ATOM     31  H21 CBI d          -0.365  40.395  11.074  0.00  0.00     0.210 HD
ENDBRANCH  22  30
ENDBRANCH   1  17
TORSDOF 12
ENDMDL
MODEL 9
REMARK VINA RESULT:      -5.0      2.772      4.711
REMARK  12 active torsions:
REMARK  status: ('A' for Active; 'I' for Inactive)
REMARK    1  A    between atoms: C1_1  and  O4'_21 
REMARK    2  A    between atoms: C2_2  and  O2_7 
REMARK    3  A    between atoms: C3_3  and  O3_8 
REMARK    4  A    between atoms: C4_4  and  O4_9 
REMARK    5  A    between atoms: C5_5  and  C6_6 
REMARK    6  A    between atoms: C6_6  and  O6_11 
REMARK    7  A    between atoms: C1'_12  and  O1'_18 
REMARK    8  A    between atoms: C2'_13  and  O2'_19 
REMARK    9  A    between atoms: C3'_14  and  O3'_20 
REMARK   10  A    between atoms: O4'_21  and  C4'_15 
REMARK   11  A    between atoms: C5'_16  and  C6'_17 
REMARK   12  A    between atoms: C6'_17  and  O6'_23 
ROOT
ATOM      1  O4' CBI d           1.055  42.766  13.080  0.00  0.00    -0.348 OA
ENDROOT
BRANCH   1   2
ATOM      2  C1  CBI d           1.994  41.697  13.104  0.00  0.00     0.292 C 
ATOM      3  O5  CBI d           1.361  40.476  12.738  0.00  0.00    -0.348 OA
ATOM      4  C5  CBI d           2.116  39.251  12.767  0.00  0.00     0.179 C 
ATOM      5  C4  CBI d           2.611  38.981  14.222  0.00  0.00     0.180 C 
ATOM      6  C3  CBI d           3.373  40.222  14.781  0.00  0.00     0.183 C 
ATOM      7  C2  CBI d           2.509  41.521  14.598  0.00  0.00     0.204 C 
BRANCH   4   8
ATOM      8  C6  CBI d           1.142  38.165  12.261  0.00  0.00     0.198 C 
BRANCH   8   9
ATOM      9  O6  CBI d           1.480  36.793  12.351  0.00  0.00    -0.398 OA
ATOM     10  H11 CBI d           1.088  36.324  11.624  0.00  0.00     0.209 HD
ENDBRANCH   8   9
ENDBRANCH   4   8
BRANCH   5  11
ATOM     11  O4  CBI d           3.433  37.816  14.292  0.00  0.00    -0.390 OA
ATOM     12  H10 CBI d           3.535  37.450  13.421  0.00  0.00     0.210 HD
ENDBRANCH   5  11
BRANCH   6  13
ATOM     13  O3  CBI d           3.629  39.971  16.166  0.00  0.00    -0.390 OA
ATOM     14  H9  CBI d           4.380  40.481  16.445  0.00  0.00     0.210 HD
ENDBRANCH   6  13
BRANCH   7  15
ATOM     15  O2  CBI d           3.251  42.664  14.996  0.00  0.00    -0.388 OA
ATOM     16  H8  CBI d           3.403  43.221  14.241  0.00  0.00     0.210 HD
ENDBRANCH   7  15
ENDBRANCH   1   2
BRANCH   1  17
ATOM     17  C4' CBI d          -0.175  42.566  12.430  0.00  0.00     0.187 C 
ATOM     18  C5' CBI d          -0.234  43.153  10.955  0.00  0.00     0.180 C 
ATOM     19  O5' CBI d          -1.517  42.944  10.359  0.00  0.00    -0.349 OA
ATOM     20  C1' CBI d          -2.640  43.483  11.046  0.00  0.00     0.288 C 
ATOM     21  C2' CBI d          -2.717  43.086  12.543  0.00  0.00     0.204 C 
ATOM     22  C3' CBI d          -1.344  43.223  13.275  0.00  0.00     0.183 C 
BRANCH  18  23
ATOM     23  C6' CBI d           0.823  42.475  10.044  0.00  0.00     0.198 C 
BRANCH  23  24
ATOM     24  O6' CBI d           0.208  41.676   9.047  0.00  0.00    -0.398 OA
ATOM     25  H22 CBI d           0.858  41.102   8.658  0.00  0.00     0.209 HD
ENDBRANCH  23  24
ENDBRANCH  18  23
BRANCH  20  26
ATOM     26  O1' CBI d          -3.746  43.034  10.291  0.00  0.00    -0.369 OA
ATOM     27  H19 CBI d          -3.441  42.677   9.465  0.00  0.00     0.212 HD
ENDBRANCH  20  26
BRANCH  21  28
ATOM     28  O2' CBI d          -3.740  43.834  13.175  0.00  0.00    -0.388 OA
ATOM     29  H20 CBI d          -3.655  44.750  12.936  0.00  0.00     0.210 HD
ENDBRANCH  21  28
BRANCH  22  30
ATOM     30  O3' CBI d          -1.363  42.668  14.586  0.00  0.00    -0.390 OA
ATOM     31  H21 CBI d          -0.685  42.006  14.658  0.00  0.00     0.210 HD
ENDBRANCH  22  30
ENDBRANCH   1  17
TORSDOF 12
ENDMDL
MODEL 10
REMARK VINA RESULT:      -5.0      1.777      2.727
REMARK  12 active torsions:
REMARK  status: ('A' for Active; 'I' for Inactive)
REMARK    1  A    between atoms: C1_1  and  O4'_21 
REMARK    2  A    between atoms: C2_2  and  O2_7 
REMARK    3  A    between atoms: C3_3  and  O3_8 
REMARK    4  A    between atoms: C4_4  and  O4_9 
REMARK    5  A    between atoms: C5_5  and  C6_6 
REMARK    6  A    between atoms: C6_6  and  O6_11 
REMARK    7  A    between atoms: C1'_12  and  O1'_18 
REMARK    8  A    between atoms: C2'_13  and  O2'_19 
REMARK    9  A    between atoms: C3'_14  and  O3'_20 
REMARK   10  A    between atoms: O4'_21  and  C4'_15 
REMARK   11  A    between atoms: C5'_16  and  C6'_17 
REMARK   12  A    between atoms: C6'_17  and  O6'_23 
ROOT
ATOM      1  O4' CBI d           1.710  42.277  12.793  0.00  0.00    -0.348 OA
ENDROOT
BRANCH   1   2
ATOM      2  C1  CBI d           1.947  42.398  11.395  0.00  0.00     0.292 C 
ATOM      3  O5  CBI d           2.903  41.432  10.972  0.00  0.00    -0.348 OA
ATOM      4  C5  CBI d           3.344  41.427   9.602  0.00  0.00     0.179 C 
ATOM      5  C4  CBI d           4.032  42.788   9.273  0.00  0.00     0.180 C 
ATOM      6  C3  CBI d           3.097  43.979   9.645  0.00  0.00     0.183 C 
ATOM      7  C2  CBI d           2.582  43.829  11.121  0.00  0.00     0.204 C 
BRANCH   4   8
ATOM      8  C6  CBI d           4.315  40.230   9.496  0.00  0.00     0.198 C 
BRANCH   8   9
ATOM      9  O6  CBI d           3.921  39.037   8.843  0.00  0.00    -0.398 OA
ATOM     10  H11 CBI d           3.708  39.229   7.937  0.00  0.00     0.209 HD
ENDBRANCH   8   9
ENDBRANCH   4   8
BRANCH   5  11
ATOM     11  O4  CBI d           4.420  42.865   7.901  0.00  0.00    -0.390 OA
ATOM     12  H10 CBI d           3.972  43.594   7.487  0.00  0.00     0.210 HD
ENDBRANCH   5  11
BRANCH   6  13
ATOM     13  O3  CBI d           3.860  45.179   9.490  0.00  0.00    -0.390 OA
ATOM     14  H9  CBI d           4.164  45.247   8.593  0.00  0.00     0.210 HD
ENDBRANCH   6  13
BRANCH   7  15
ATOM     15  O2  CBI d           1.638  44.847  11.418  0.00  0.00    -0.388 OA
ATOM     16  H8  CBI d           0.773  44.463  11.493  0.00  0.00     0.210 HD
ENDBRANCH   7  15
ENDBRANCH   1   2
BRANCH   1  17
ATOM     17  C4' CBI d           1.959  41.040  13.413  0.00  0.00     0.187 C 
ATOM     18  C5' CBI d           0.683  40.100  13.525  0.00  0.00     0.180 C 
ATOM     19  O5' CBI d           0.995  38.872  14.189  0.00  0.00    -0.349 OA
ATOM     20  C1' CBI d           1.532  38.970  15.502  0.00  0.00     0.288 C 
ATOM     21  C2' CBI d           2.752  39.921  15.618  0.00  0.00     0.204 C 
ATOM     22  C3' CBI d           2.535  41.275  14.871  0.00  0.00     0.183 C 
BRANCH  18  23
ATOM     23  C6' CBI d           0.128  39.747  12.121  0.00  0.00     0.198 C 
BRANCH  23  24
ATOM     24  O6' CBI d           1.091  39.054  11.344  0.00  0.00    -0.398 OA
ATOM     25  H22 CBI d           1.262  38.206  11.736  0.00  0.00     0.209 HD
ENDBRANCH  23  24
ENDBRANCH  18  23
BRANCH  20  26
ATOM     26  O1' CBI d           1.831  37.633  15.847  0.00  0.00    -0.369 OA
ATOM     27  H19 CBI d           1.167  37.305  16.443  0.00  0.00     0.212 HD
ENDBRANCH  20  26
BRANCH  21  28
ATOM     28  O2' CBI d           3.075  40.106  16.984  0.00  0.00    -0.388 OA
ATOM     29  H20 CBI d           3.855  39.606  17.195  0.00  0.00     0.210 HD
ENDBRANCH  21  28
BRANCH  22  30
ATOM     30  O3' CBI d           3.721  42.059  14.802  0.00  0.00    -0.390 OA
ATOM     31  H21 CBI d           4.164  42.035  15.642  0.00  0.00     0.210 HD
ENDBRANCH  22  30
ENDBRANCH   1  17
TORSDOF 12
ENDMDL
