MODEL 1
REMARK VINA RESULT:      -9.2      0.000      0.000
REMARK  8 active torsions:
REMARK  status: ('A' for Active; 'I' for Inactive)
REMARK    1  A    between atoms: N1_1  and  C2_2 
REMARK    2  A    between atoms: C2_2  and  C3_3 
REMARK    3  A    between atoms: C6_6  and  N7_7 
REMARK       I    between atoms: N7_7  and  C8_8 
REMARK    4  A    between atoms: C8_8  and  C10_10 
REMARK    5  A    between atoms: C12_12  and  N13_13 
REMARK    6  A    between atoms: N13_13  and  C14_14 
REMARK    7  A    between atoms: C22_22  and  C27_27 
REMARK    8  A    between atoms: C27_27  and  N28_28 
ROOT
ATOM      1  C10 UI1 d          23.069  15.544  33.480  0.00  0.00     0.035 A 
ATOM      2  C11 UI1 d          23.569  16.763  33.992  0.00  0.00     0.048 A 
ATOM      3  C12 UI1 d          22.724  17.830  34.195  0.00  0.00     0.061 A 
ATOM      4  C20 UI1 d          21.327  17.702  33.891  0.00  0.00     0.002 A 
ATOM      5  C21 UI1 d          20.472  18.814  34.084  0.00  0.00     0.029 A 
ATOM      6  C22 UI1 d          19.093  18.710  33.795  0.00  0.00     0.008 A 
ATOM      7  C23 UI1 d          18.557  17.497  33.320  0.00  0.00     0.016 A 
ATOM      8  C24 UI1 d          19.408  16.382  33.120  0.00  0.00     0.013 A 
ATOM      9  C25 UI1 d          20.802  16.487  33.401  0.00  0.00    -0.023 A 
ATOM     10  C26 UI1 d          21.674  15.396  33.186  0.00  0.00     0.029 A 
ENDROOT
BRANCH   1  11
ATOM     11  C8  UI1 d          24.058  14.457  33.203  0.00  0.00     0.256 C 
ATOM     12  N7  UI1 d          23.683  13.443  32.447  0.00  0.00    -0.323 N 
ATOM     13  H8  UI1 d          22.725  13.368  32.168  0.00  0.00     0.169 HD
ATOM     14  O9  UI1 d          25.208  14.555  33.615  0.00  0.00    -0.267 OA
BRANCH  12  15
ATOM     15  C6  UI1 d          24.627  12.443  32.015  0.00  0.00     0.035 A 
ATOM     16  C5  UI1 d          24.313  11.126  32.473  0.00  0.00     0.030 A 
ATOM     17  C4  UI1 d          25.134  10.032  32.163  0.00  0.00     0.011 A 
ATOM     18  C3  UI1 d          26.285  10.230  31.385  0.00  0.00    -0.033 A 
ATOM     19  C31 UI1 d          26.609  11.533  30.923  0.00  0.00     0.011 A 
ATOM     20  C30 UI1 d          25.776  12.652  31.243  0.00  0.00     0.030 A 
BRANCH  18  21
ATOM     21  C2  UI1 d          27.188   9.033  31.048  0.00  0.00     0.268 C 
BRANCH  21  22
ATOM     22  N1  UI1 d          26.556   8.149  30.079  0.00  0.00    -0.075 N 
ATOM     23  H1  UI1 d          26.161   7.354  30.556  0.00  0.00     0.274 HD
ATOM     24  H2  UI1 d          27.245   7.833  29.413  0.00  0.00     0.274 HD
ATOM     25  H3  UI1 d          25.825   8.648  29.595  0.00  0.00     0.274 HD
ENDBRANCH  21  22
ENDBRANCH  18  21
ENDBRANCH  12  15
ENDBRANCH   1  11
BRANCH   3  26
ATOM     26  N13 UI1 d          23.277  19.077  34.657  0.00  0.00    -0.187 N 
ATOM     27  H10 UI1 d          23.120  19.920  34.087  0.00  0.00     0.184 HD
BRANCH  26  28
ATOM     28  C14 UI1 d          24.027  19.207  35.855  0.00  0.00     0.726 A 
ATOM     29  N15 UI1 d          24.798  20.310  36.010  0.00  0.00    -0.075 NA
ATOM     30  C16 UI1 d          25.519  20.497  37.138  0.00  0.00     0.138 A 
ATOM     31  C17 UI1 d          25.463  19.536  38.171  0.00  0.00     0.040 A 
ATOM     32  C18 UI1 d          24.659  18.404  37.975  0.00  0.00     0.138 A 
ATOM     33  N19 UI1 d          23.960  18.267  36.823  0.00  0.00    -0.075 NA
ENDBRANCH  26  28
ENDBRANCH   3  26
BRANCH   6  34
ATOM     34  C27 UI1 d          18.259  19.913  34.019  0.00  0.00     0.102 C 
ATOM     35  N29 UI1 d          18.817  21.088  34.276  0.00  0.00    -0.385 N 
ATOM     36  H20 UI1 d          19.843  21.173  34.322  0.00  0.00     0.157 HD
ATOM     37  H21 UI1 d          18.225  21.917  34.430  0.00  0.00     0.157 HD
BRANCH  34  38
ATOM     38  N28 UI1 d          16.961  19.821  33.963  0.00  0.00    -0.385 N 
ATOM     39  H18 UI1 d          16.373  20.555  34.383  0.00  0.00     0.157 HD
ATOM     40  H19 UI1 d          16.522  19.013  33.499  0.00  0.00     0.157 HD
ENDBRANCH  34  38
ENDBRANCH   6  34
TORSDOF 8
ENDMDL
MODEL 2
REMARK VINA RESULT:      -8.9      3.096      5.268
REMARK  8 active torsions:
REMARK  status: ('A' for Active; 'I' for Inactive)
REMARK    1  A    between atoms: N1_1  and  C2_2 
REMARK    2  A    between atoms: C2_2  and  C3_3 
REMARK    3  A    between atoms: C6_6  and  N7_7 
REMARK       I    between atoms: N7_7  and  C8_8 
REMARK    4  A    between atoms: C8_8  and  C10_10 
REMARK    5  A    between atoms: C12_12  and  N13_13 
REMARK    6  A    between atoms: N13_13  and  C14_14 
REMARK    7  A    between atoms: C22_22  and  C27_27 
REMARK    8  A    between atoms: C27_27  and  N28_28 
ROOT
ATOM      1  C10 UI1 d          23.772  13.729  32.601  0.00  0.00     0.035 A 
ATOM      2  C11 UI1 d          23.071  14.644  33.419  0.00  0.00     0.048 A 
ATOM      3  C12 UI1 d          23.148  15.996  33.173  0.00  0.00     0.061 A 
ATOM      4  C20 UI1 d          23.938  16.478  32.075  0.00  0.00     0.002 A 
ATOM      5  C21 UI1 d          24.025  17.872  31.845  0.00  0.00     0.029 A 
ATOM      6  C22 UI1 d          24.793  18.368  30.769  0.00  0.00     0.008 A 
ATOM      7  C23 UI1 d          25.471  17.480  29.912  0.00  0.00     0.016 A 
ATOM      8  C24 UI1 d          25.392  16.084  30.139  0.00  0.00     0.013 A 
ATOM      9  C25 UI1 d          24.626  15.581  31.231  0.00  0.00    -0.023 A 
ATOM     10  C26 UI1 d          24.551  14.194  31.493  0.00  0.00     0.029 A 
ENDROOT
BRANCH   1  11
ATOM     11  C8  UI1 d          23.712  12.283  32.980  0.00  0.00     0.256 C 
ATOM     12  N7  UI1 d          24.781  11.536  32.777  0.00  0.00    -0.323 N 
ATOM     13  H8  UI1 d          25.560  11.919  32.279  0.00  0.00     0.169 HD
ATOM     14  O9  UI1 d          22.715  11.834  33.533  0.00  0.00    -0.267 OA
BRANCH  12  15
ATOM     15  C6  UI1 d          24.847  10.179  33.258  0.00  0.00     0.035 A 
ATOM     16  C5  UI1 d          25.320  10.072  34.603  0.00  0.00     0.030 A 
ATOM     17  C4  UI1 d          25.466   8.825  35.227  0.00  0.00     0.011 A 
ATOM     18  C3  UI1 d          25.140   7.656  34.521  0.00  0.00    -0.033 A 
ATOM     19  C31 UI1 d          24.669   7.747  33.185  0.00  0.00     0.011 A 
ATOM     20  C30 UI1 d          24.525   9.019  32.544  0.00  0.00     0.030 A 
BRANCH  18  21
ATOM     21  C2  UI1 d          25.304   6.289  35.201  0.00  0.00     0.268 C 
BRANCH  21  22
ATOM     22  N1  UI1 d          25.214   6.404  36.651  0.00  0.00    -0.075 N 
ATOM     23  H1  UI1 d          25.198   5.483  37.061  0.00  0.00     0.274 HD
ATOM     24  H2  UI1 d          24.369   6.896  36.897  0.00  0.00     0.274 HD
ATOM     25  H3  UI1 d          26.013   6.912  36.998  0.00  0.00     0.274 HD
ENDBRANCH  21  22
ENDBRANCH  18  21
ENDBRANCH  12  15
ENDBRANCH   1  11
BRANCH   3  26
ATOM     26  N13 UI1 d          22.474  16.904  34.064  0.00  0.00    -0.187 N 
ATOM     27  H10 UI1 d          22.990  17.254  34.884  0.00  0.00     0.184 HD
BRANCH  26  28
ATOM     28  C14 UI1 d          21.138  17.344  33.875  0.00  0.00     0.726 A 
ATOM     29  N15 UI1 d          20.188  16.412  33.623  0.00  0.00    -0.075 NA
ATOM     30  C16 UI1 d          18.895  16.770  33.452  0.00  0.00     0.138 A 
ATOM     31  C17 UI1 d          18.529  18.130  33.547  0.00  0.00     0.040 A 
ATOM     32  C18 UI1 d          19.539  19.069  33.804  0.00  0.00     0.138 A 
ATOM     33  N19 UI1 d          20.818  18.654  33.963  0.00  0.00    -0.075 NA
ENDBRANCH  26  28
ENDBRANCH   3  26
BRANCH   6  34
ATOM     34  C27 UI1 d          24.841  19.838  30.589  0.00  0.00     0.102 C 
ATOM     35  N29 UI1 d          24.156  20.427  29.619  0.00  0.00    -0.385 N 
ATOM     36  H20 UI1 d          23.580  19.862  28.978  0.00  0.00     0.157 HD
ATOM     37  H21 UI1 d          24.199  21.450  29.505  0.00  0.00     0.157 HD
BRANCH  34  38
ATOM     38  N28 UI1 d          25.566  20.565  31.392  0.00  0.00    -0.385 N 
ATOM     39  H18 UI1 d          26.436  20.183  31.790  0.00  0.00     0.157 HD
ATOM     40  H19 UI1 d          25.268  21.522  31.630  0.00  0.00     0.157 HD
ENDBRANCH  34  38
ENDBRANCH   6  34
TORSDOF 8
ENDMDL
MODEL 3
REMARK VINA RESULT:      -8.5      2.048      2.225
REMARK  8 active torsions:
REMARK  status: ('A' for Active; 'I' for Inactive)
REMARK    1  A    between atoms: N1_1  and  C2_2 
REMARK    2  A    between atoms: C2_2  and  C3_3 
REMARK    3  A    between atoms: C6_6  and  N7_7 
REMARK       I    between atoms: N7_7  and  C8_8 
REMARK    4  A    between atoms: C8_8  and  C10_10 
REMARK    5  A    between atoms: C12_12  and  N13_13 
REMARK    6  A    between atoms: N13_13  and  C14_14 
REMARK    7  A    between atoms: C22_22  and  C27_27 
REMARK    8  A    between atoms: C27_27  and  N28_28 
ROOT
ATOM      1  C10 UI1 d          23.260  15.766  32.298  0.00  0.00     0.035 A 
ATOM      2  C11 UI1 d          23.758  16.887  33.002  0.00  0.00     0.048 A 
ATOM      3  C12 UI1 d          22.895  17.844  33.484  0.00  0.00     0.061 A 
ATOM      4  C20 UI1 d          21.481  17.700  33.277  0.00  0.00     0.002 A 
ATOM      5  C21 UI1 d          20.605  18.703  33.759  0.00  0.00     0.029 A 
ATOM      6  C22 UI1 d          19.212  18.580  33.570  0.00  0.00     0.008 A 
ATOM      7  C23 UI1 d          18.681  17.457  32.906  0.00  0.00     0.016 A 
ATOM      8  C24 UI1 d          19.553  16.453  32.416  0.00  0.00     0.013 A 
ATOM      9  C25 UI1 d          20.961  16.579  32.597  0.00  0.00    -0.023 A 
ATOM     10  C26 UI1 d          21.851  15.602  32.097  0.00  0.00     0.029 A 
ENDROOT
BRANCH   1  11
ATOM     11  C8  UI1 d          24.261  14.813  31.728  0.00  0.00     0.256 C 
ATOM     12  N7  UI1 d          25.258  15.301  31.015  0.00  0.00    -0.323 N 
ATOM     13  H8  UI1 d          25.263  16.273  30.780  0.00  0.00     0.169 HD
ATOM     14  O9  UI1 d          24.187  13.617  31.988  0.00  0.00    -0.267 OA
BRANCH  12  15
ATOM     15  C6  UI1 d          26.339  14.460  30.567  0.00  0.00     0.035 A 
ATOM     16  C5  UI1 d          27.524  14.582  31.359  0.00  0.00     0.030 A 
ATOM     17  C4  UI1 d          28.682  13.850  31.056  0.00  0.00     0.011 A 
ATOM     18  C3  UI1 d          28.680  12.978  29.956  0.00  0.00    -0.033 A 
ATOM     19  C31 UI1 d          27.511  12.847  29.161  0.00  0.00     0.011 A 
ATOM     20  C30 UI1 d          26.331  13.597  29.465  0.00  0.00     0.030 A 
BRANCH  18  21
ATOM     21  C2  UI1 d          29.949  12.180  29.620  0.00  0.00     0.268 C 
BRANCH  21  22
ATOM     22  N1  UI1 d          29.757  11.351  28.438  0.00  0.00    -0.075 N 
ATOM     23  H1  UI1 d          29.218  11.860  27.754  0.00  0.00     0.274 HD
ATOM     24  H2  UI1 d          29.265  10.509  28.694  0.00  0.00     0.274 HD
ATOM     25  H3  UI1 d          30.655  11.111  28.047  0.00  0.00     0.274 HD
ENDBRANCH  21  22
ENDBRANCH  18  21
ENDBRANCH  12  15
ENDBRANCH   1  11
BRANCH   3  26
ATOM     26  N13 UI1 d          23.439  19.004  34.141  0.00  0.00    -0.187 N 
ATOM     27  H10 UI1 d          23.457  19.893  33.622  0.00  0.00     0.184 HD
BRANCH  26  28
ATOM     28  C14 UI1 d          23.953  18.989  35.463  0.00  0.00     0.726 A 
ATOM     29  N15 UI1 d          24.560  20.108  35.927  0.00  0.00    -0.075 NA
ATOM     30  C16 UI1 d          25.052  20.158  37.185  0.00  0.00     0.138 A 
ATOM     31  C17 UI1 d          24.925  19.034  38.030  0.00  0.00     0.040 A 
ATOM     32  C18 UI1 d          24.296  17.891  37.517  0.00  0.00     0.138 A 
ATOM     33  N19 UI1 d          23.824  17.896  36.247  0.00  0.00    -0.075 NA
ENDBRANCH  26  28
ENDBRANCH   3  26
BRANCH   6  34
ATOM     34  C27 UI1 d          18.356  19.668  34.099  0.00  0.00     0.102 C 
ATOM     35  N29 UI1 d          18.877  20.656  34.813  0.00  0.00    -0.385 N 
ATOM     36  H20 UI1 d          19.889  20.675  35.005  0.00  0.00     0.157 HD
ATOM     37  H21 UI1 d          18.270  21.406  35.174  0.00  0.00     0.157 HD
BRANCH  34  38
ATOM     38  N28 UI1 d          17.074  19.656  33.863  0.00  0.00    -0.385 N 
ATOM     39  H18 UI1 d          16.632  18.819  33.456  0.00  0.00     0.157 HD
ATOM     40  H19 UI1 d          16.503  20.485  34.082  0.00  0.00     0.157 HD
ENDBRANCH  34  38
ENDBRANCH   6  34
TORSDOF 8
ENDMDL
MODEL 4
REMARK VINA RESULT:      -8.0      1.672      2.057
REMARK  8 active torsions:
REMARK  status: ('A' for Active; 'I' for Inactive)
REMARK    1  A    between atoms: N1_1  and  C2_2 
REMARK    2  A    between atoms: C2_2  and  C3_3 
REMARK    3  A    between atoms: C6_6  and  N7_7 
REMARK       I    between atoms: N7_7  and  C8_8 
REMARK    4  A    between atoms: C8_8  and  C10_10 
REMARK    5  A    between atoms: C12_12  and  N13_13 
REMARK    6  A    between atoms: N13_13  and  C14_14 
REMARK    7  A    between atoms: C22_22  and  C27_27 
REMARK    8  A    between atoms: C27_27  and  N28_28 
ROOT
ATOM      1  C10 UI1 d          23.216  14.921  33.437  0.00  0.00     0.035 A 
ATOM      2  C11 UI1 d          23.818  16.130  33.856  0.00  0.00     0.048 A 
ATOM      3  C12 UI1 d          23.056  17.263  34.028  0.00  0.00     0.061 A 
ATOM      4  C20 UI1 d          21.641  17.214  33.788  0.00  0.00     0.002 A 
ATOM      5  C21 UI1 d          20.871  18.392  33.948  0.00  0.00     0.029 A 
ATOM      6  C22 UI1 d          19.478  18.367  33.721  0.00  0.00     0.008 A 
ATOM      7  C23 UI1 d          18.842  17.169  33.341  0.00  0.00     0.016 A 
ATOM      8  C24 UI1 d          19.607  15.989  33.174  0.00  0.00     0.013 A 
ATOM      9  C25 UI1 d          21.015  16.013  33.393  0.00  0.00    -0.023 A 
ATOM     10  C26 UI1 d          21.803  14.854  33.209  0.00  0.00     0.029 A 
ENDROOT
BRANCH   1  11
ATOM     11  C8  UI1 d          24.118  13.755  33.188  0.00  0.00     0.256 C 
ATOM     12  N7  UI1 d          23.648  12.735  32.496  0.00  0.00    -0.323 N 
ATOM     13  H8  UI1 d          22.678  12.713  32.250  0.00  0.00     0.169 HD
ATOM     14  O9  UI1 d          25.285  13.791  33.559  0.00  0.00    -0.267 OA
BRANCH  12  15
ATOM     15  C6  UI1 d          24.505  11.650  32.087  0.00  0.00     0.035 A 
ATOM     16  C5  UI1 d          23.947  10.357  32.333  0.00  0.00     0.030 A 
ATOM     17  C4  UI1 d          24.651   9.186  32.015  0.00  0.00     0.011 A 
ATOM     18  C3  UI1 d          25.929   9.283  31.441  0.00  0.00    -0.033 A 
ATOM     19  C31 UI1 d          26.495  10.560  31.191  0.00  0.00     0.011 A 
ATOM     20  C30 UI1 d          25.780  11.756  31.520  0.00  0.00     0.030 A 
BRANCH  18  21
ATOM     21  C2  UI1 d          26.703   8.002  31.097  0.00  0.00     0.268 C 
BRANCH  21  22
ATOM     22  N1  UI1 d          25.904   6.813  31.359  0.00  0.00    -0.075 N 
ATOM     23  H1  UI1 d          26.354   6.255  32.068  0.00  0.00     0.274 HD
ATOM     24  H2  UI1 d          25.817   6.273  30.512  0.00  0.00     0.274 HD
ATOM     25  H3  UI1 d          24.988   7.087  31.680  0.00  0.00     0.274 HD
ENDBRANCH  21  22
ENDBRANCH  18  21
ENDBRANCH  12  15
ENDBRANCH   1  11
BRANCH   3  26
ATOM     26  N13 UI1 d          23.711  18.493  34.392  0.00  0.00    -0.187 N 
ATOM     27  H10 UI1 d          23.241  19.113  35.067  0.00  0.00     0.184 HD
BRANCH  26  28
ATOM     28  C14 UI1 d          24.968  18.897  33.872  0.00  0.00     0.726 A 
ATOM     29  N15 UI1 d          25.114  18.957  32.526  0.00  0.00    -0.075 NA
ATOM     30  C16 UI1 d          26.283  19.353  31.975  0.00  0.00     0.138 A 
ATOM     31  C17 UI1 d          27.362  19.717  32.808  0.00  0.00     0.040 A 
ATOM     32  C18 UI1 d          27.178  19.637  34.197  0.00  0.00     0.138 A 
ATOM     33  N19 UI1 d          25.986  19.231  34.695  0.00  0.00    -0.075 NA
ENDBRANCH  26  28
ENDBRANCH   3  26
BRANCH   6  34
ATOM     34  C27 UI1 d          18.737  19.636  33.905  0.00  0.00     0.102 C 
ATOM     35  N29 UI1 d          18.834  20.322  35.036  0.00  0.00    -0.385 N 
ATOM     36  H20 UI1 d          19.431  19.974  35.800  0.00  0.00     0.157 HD
ATOM     37  H21 UI1 d          18.312  21.203  35.151  0.00  0.00     0.157 HD
BRANCH  34  38
ATOM     38  N28 UI1 d          17.978  20.088  32.947  0.00  0.00    -0.385 N 
ATOM     39  H18 UI1 d          18.098  19.738  31.986  0.00  0.00     0.157 HD
ATOM     40  H19 UI1 d          17.258  20.796  33.151  0.00  0.00     0.157 HD
ENDBRANCH  34  38
ENDBRANCH   6  34
TORSDOF 8
ENDMDL
MODEL 5
REMARK VINA RESULT:      -7.9      2.891      9.876
REMARK  8 active torsions:
REMARK  status: ('A' for Active; 'I' for Inactive)
REMARK    1  A    between atoms: N1_1  and  C2_2 
REMARK    2  A    between atoms: C2_2  and  C3_3 
REMARK    3  A    between atoms: C6_6  and  N7_7 
REMARK       I    between atoms: N7_7  and  C8_8 
REMARK    4  A    between atoms: C8_8  and  C10_10 
REMARK    5  A    between atoms: C12_12  and  N13_13 
REMARK    6  A    between atoms: N13_13  and  C14_14 
REMARK    7  A    between atoms: C22_22  and  C27_27 
REMARK    8  A    between atoms: C27_27  and  N28_28 
ROOT
ATOM      1  C10 UI1 d          23.604  13.748  32.839  0.00  0.00     0.035 A 
ATOM      2  C11 UI1 d          24.885  13.701  32.242  0.00  0.00     0.048 A 
ATOM      3  C12 UI1 d          25.635  12.549  32.296  0.00  0.00     0.061 A 
ATOM      4  C20 UI1 d          25.110  11.386  32.956  0.00  0.00     0.002 A 
ATOM      5  C21 UI1 d          25.900  10.213  33.023  0.00  0.00     0.029 A 
ATOM      6  C22 UI1 d          25.404   9.057  33.663  0.00  0.00     0.008 A 
ATOM      7  C23 UI1 d          24.116   9.059  34.234  0.00  0.00     0.016 A 
ATOM      8  C24 UI1 d          23.322  10.231  34.174  0.00  0.00     0.013 A 
ATOM      9  C25 UI1 d          23.825  11.403  33.537  0.00  0.00    -0.023 A 
ATOM     10  C26 UI1 d          23.062  12.592  33.487  0.00  0.00     0.029 A 
ENDROOT
BRANCH   1  11
ATOM     11  C8  UI1 d          22.883  15.058  32.817  0.00  0.00     0.256 C 
ATOM     12  N7  UI1 d          21.652  15.106  33.288  0.00  0.00    -0.323 N 
ATOM     13  H8  UI1 d          21.192  14.255  33.546  0.00  0.00     0.169 HD
ATOM     14  O9  UI1 d          23.460  16.070  32.435  0.00  0.00    -0.267 OA
BRANCH  12  15
ATOM     15  C6  UI1 d          20.957  16.359  33.440  0.00  0.00     0.035 A 
ATOM     16  C5  UI1 d          19.648  16.360  32.865  0.00  0.00     0.030 A 
ATOM     17  C4  UI1 d          18.836  17.503  32.903  0.00  0.00     0.011 A 
ATOM     18  C3  UI1 d          19.314  18.670  33.519  0.00  0.00    -0.033 A 
ATOM     19  C31 UI1 d          20.611  18.684  34.094  0.00  0.00     0.011 A 
ATOM     20  C30 UI1 d          21.444  17.520  34.051  0.00  0.00     0.030 A 
BRANCH  18  21
ATOM     21  C2  UI1 d          18.427  19.924  33.557  0.00  0.00     0.268 C 
BRANCH  21  22
ATOM     22  N1  UI1 d          17.079  19.607  34.008  0.00  0.00    -0.075 N 
ATOM     23  H1  UI1 d          17.084  18.719  34.485  0.00  0.00     0.274 HD
ATOM     24  H2  UI1 d          16.461  19.557  33.212  0.00  0.00     0.274 HD
ATOM     25  H3  UI1 d          16.758  20.325  34.639  0.00  0.00     0.274 HD
ENDBRANCH  21  22
ENDBRANCH  18  21
ENDBRANCH  12  15
ENDBRANCH   1  11
BRANCH   3  26
ATOM     26  N13 UI1 d          26.961  12.555  31.735  0.00  0.00    -0.187 N 
ATOM     27  H10 UI1 d          27.730  12.932  32.307  0.00  0.00     0.184 HD
BRANCH  26  28
ATOM     28  C14 UI1 d          27.266  12.071  30.436  0.00  0.00     0.726 A 
ATOM     29  N15 UI1 d          26.844  12.790  29.369  0.00  0.00    -0.075 NA
ATOM     30  C16 UI1 d          27.121  12.387  28.109  0.00  0.00     0.138 A 
ATOM     31  C17 UI1 d          27.867  11.207  27.901  0.00  0.00     0.040 A 
ATOM     32  C18 UI1 d          28.284  10.484  29.028  0.00  0.00     0.138 A 
ATOM     33  N19 UI1 d          27.975  10.933  30.268  0.00  0.00    -0.075 NA
ENDBRANCH  26  28
ENDBRANCH   3  26
BRANCH   6  34
ATOM     34  C27 UI1 d          26.286   7.867  33.698  0.00  0.00     0.102 C 
ATOM     35  N29 UI1 d          27.596   7.988  33.534  0.00  0.00    -0.385 N 
ATOM     36  H20 UI1 d          28.013   8.918  33.382  0.00  0.00     0.157 HD
ATOM     37  H21 UI1 d          28.198   7.152  33.560  0.00  0.00     0.157 HD
BRANCH  34  38
ATOM     38  N28 UI1 d          25.772   6.685  33.890  0.00  0.00    -0.385 N 
ATOM     39  H18 UI1 d          26.386   5.880  34.076  0.00  0.00     0.157 HD
ATOM     40  H19 UI1 d          24.750   6.557  33.855  0.00  0.00     0.157 HD
ENDBRANCH  34  38
ENDBRANCH   6  34
TORSDOF 8
ENDMDL
MODEL 6
REMARK VINA RESULT:      -7.9      3.044      9.729
REMARK  8 active torsions:
REMARK  status: ('A' for Active; 'I' for Inactive)
REMARK    1  A    between atoms: N1_1  and  C2_2 
REMARK    2  A    between atoms: C2_2  and  C3_3 
REMARK    3  A    between atoms: C6_6  and  N7_7 
REMARK       I    between atoms: N7_7  and  C8_8 
REMARK    4  A    between atoms: C8_8  and  C10_10 
REMARK    5  A    between atoms: C12_12  and  N13_13 
REMARK    6  A    between atoms: N13_13  and  C14_14 
REMARK    7  A    between atoms: C22_22  and  C27_27 
REMARK    8  A    between atoms: C27_27  and  N28_28 
ROOT
ATOM      1  C10 UI1 d          24.321  14.647  31.466  0.00  0.00     0.035 A 
ATOM      2  C11 UI1 d          24.708  14.011  32.668  0.00  0.00     0.048 A 
ATOM      3  C12 UI1 d          25.747  13.110  32.675  0.00  0.00     0.061 A 
ATOM      4  C20 UI1 d          26.447  12.819  31.455  0.00  0.00     0.002 A 
ATOM      5  C21 UI1 d          27.501  11.873  31.470  0.00  0.00     0.029 A 
ATOM      6  C22 UI1 d          28.205  11.574  30.284  0.00  0.00     0.008 A 
ATOM      7  C23 UI1 d          27.870  12.219  29.077  0.00  0.00     0.016 A 
ATOM      8  C24 UI1 d          26.813  13.162  29.054  0.00  0.00     0.013 A 
ATOM      9  C25 UI1 d          26.094  13.459  30.248  0.00  0.00    -0.023 A 
ATOM     10  C26 UI1 d          25.020  14.378  30.245  0.00  0.00     0.029 A 
ENDROOT
BRANCH   1  11
ATOM     11  C8  UI1 d          23.129  15.548  31.518  0.00  0.00     0.256 C 
ATOM     12  N7  UI1 d          22.301  15.436  32.539  0.00  0.00    -0.323 N 
ATOM     13  H8  UI1 d          22.425  14.687  33.191  0.00  0.00     0.169 HD
ATOM     14  O9  UI1 d          22.976  16.414  30.665  0.00  0.00    -0.267 OA
BRANCH  12  15
ATOM     15  C6  UI1 d          21.221  16.370  32.733  0.00  0.00     0.035 A 
ATOM     16  C5  UI1 d          21.582  17.503  33.527  0.00  0.00     0.030 A 
ATOM     17  C4  UI1 d          20.650  18.506  33.833  0.00  0.00     0.011 A 
ATOM     18  C3  UI1 d          19.336  18.398  33.349  0.00  0.00    -0.033 A 
ATOM     19  C31 UI1 d          18.964  17.279  32.559  0.00  0.00     0.011 A 
ATOM     20  C30 UI1 d          19.912  16.252  32.251  0.00  0.00     0.030 A 
BRANCH  18  21
ATOM     21  C2  UI1 d          18.313  19.493  33.687  0.00  0.00     0.268 C 
BRANCH  21  22
ATOM     22  N1  UI1 d          18.696  20.226  34.886  0.00  0.00    -0.075 N 
ATOM     23  H1  UI1 d          18.851  21.195  34.653  0.00  0.00     0.274 HD
ATOM     24  H2  UI1 d          19.544  19.832  35.264  0.00  0.00     0.274 HD
ATOM     25  H3  UI1 d          17.960  20.159  35.571  0.00  0.00     0.274 HD
ENDBRANCH  21  22
ENDBRANCH  18  21
ENDBRANCH  12  15
ENDBRANCH   1  11
BRANCH   3  26
ATOM     26  N13 UI1 d          26.073  12.432  33.903  0.00  0.00    -0.187 N 
ATOM     27  H10 UI1 d          26.675  12.918  34.582  0.00  0.00     0.184 HD
BRANCH  26  28
ATOM     28  C14 UI1 d          25.608  11.131  34.229  0.00  0.00     0.726 A 
ATOM     29  N15 UI1 d          24.611  10.602  33.480  0.00  0.00    -0.075 NA
ATOM     30  C16 UI1 d          24.141   9.360  33.732  0.00  0.00     0.138 A 
ATOM     31  C17 UI1 d          24.701   8.600  34.782  0.00  0.00     0.040 A 
ATOM     32  C18 UI1 d          25.729   9.181  35.540  0.00  0.00     0.138 A 
ATOM     33  N19 UI1 d          26.159  10.431  35.245  0.00  0.00    -0.075 NA
ENDBRANCH  26  28
ENDBRANCH   3  26
BRANCH   6  34
ATOM     34  C27 UI1 d          29.294  10.574  30.374  0.00  0.00     0.102 C 
ATOM     35  N29 UI1 d          29.175   9.509  31.155  0.00  0.00    -0.385 N 
ATOM     36  H20 UI1 d          28.318   9.368  31.708  0.00  0.00     0.157 HD
ATOM     37  H21 UI1 d          29.941   8.821  31.208  0.00  0.00     0.157 HD
BRANCH  34  38
ATOM     38  N28 UI1 d          30.384  10.738  29.679  0.00  0.00    -0.385 N 
ATOM     39  H18 UI1 d          31.304  10.605  30.123  0.00  0.00     0.157 HD
ATOM     40  H19 UI1 d          30.326  11.002  28.685  0.00  0.00     0.157 HD
ENDBRANCH  34  38
ENDBRANCH   6  34
TORSDOF 8
ENDMDL
MODEL 7
REMARK VINA RESULT:      -7.8      2.827      9.389
REMARK  8 active torsions:
REMARK  status: ('A' for Active; 'I' for Inactive)
REMARK    1  A    between atoms: N1_1  and  C2_2 
REMARK    2  A    between atoms: C2_2  and  C3_3 
REMARK    3  A    between atoms: C6_6  and  N7_7 
REMARK       I    between atoms: N7_7  and  C8_8 
REMARK    4  A    between atoms: C8_8  and  C10_10 
REMARK    5  A    between atoms: C12_12  and  N13_13 
REMARK    6  A    between atoms: N13_13  and  C14_14 
REMARK    7  A    between atoms: C22_22  and  C27_27 
REMARK    8  A    between atoms: C27_27  and  N28_28 
ROOT
ATOM      1  C10 UI1 d          23.621  13.716  32.892  0.00  0.00     0.035 A 
ATOM      2  C11 UI1 d          24.675  13.688  31.951  0.00  0.00     0.048 A 
ATOM      3  C12 UI1 d          25.332  12.510  31.678  0.00  0.00     0.061 A 
ATOM      4  C20 UI1 d          24.938  11.302  32.347  0.00  0.00     0.002 A 
ATOM      5  C21 UI1 d          25.635  10.100  32.074  0.00  0.00     0.029 A 
ATOM      6  C22 UI1 d          25.262   8.900  32.717  0.00  0.00     0.008 A 
ATOM      7  C23 UI1 d          24.190   8.887  33.631  0.00  0.00     0.016 A 
ATOM      8  C24 UI1 d          23.492  10.087  33.913  0.00  0.00     0.013 A 
ATOM      9  C25 UI1 d          23.873  11.303  33.272  0.00  0.00    -0.023 A 
ATOM     10  C26 UI1 d          23.207  12.517  33.556  0.00  0.00     0.029 A 
ENDROOT
BRANCH   1  11
ATOM     11  C8  UI1 d          23.012  15.047  33.202  0.00  0.00     0.256 C 
ATOM     12  N7  UI1 d          21.827  15.329  32.695  0.00  0.00    -0.323 N 
ATOM     13  H8  UI1 d          21.415  14.702  32.034  0.00  0.00     0.169 HD
ATOM     14  O9  UI1 d          23.578  15.817  33.969  0.00  0.00    -0.267 OA
BRANCH  12  15
ATOM     15  C6  UI1 d          21.116  16.524  33.075  0.00  0.00     0.035 A 
ATOM     16  C5  UI1 d          19.760  16.549  32.625  0.00  0.00     0.030 A 
ATOM     17  C4  UI1 d          18.924  17.644  32.889  0.00  0.00     0.011 A 
ATOM     18  C3  UI1 d          19.427  18.738  33.611  0.00  0.00    -0.033 A 
ATOM     19  C31 UI1 d          20.772  18.727  34.065  0.00  0.00     0.011 A 
ATOM     20  C30 UI1 d          21.627  17.612  33.791  0.00  0.00     0.030 A 
BRANCH  18  21
ATOM     21  C2  UI1 d          18.514  19.941  33.897  0.00  0.00     0.268 C 
BRANCH  21  22
ATOM     22  N1  UI1 d          17.118  19.536  33.995  0.00  0.00    -0.075 N 
ATOM     23  H1  UI1 d          16.585  20.270  34.435  0.00  0.00     0.274 HD
ATOM     24  H2  UI1 d          17.050  18.694  34.547  0.00  0.00     0.274 HD
ATOM     25  H3  UI1 d          16.752  19.363  33.071  0.00  0.00     0.274 HD
ENDBRANCH  21  22
ENDBRANCH  18  21
ENDBRANCH  12  15
ENDBRANCH   1  11
BRANCH   3  26
ATOM     26  N13 UI1 d          26.443  12.529  30.763  0.00  0.00    -0.187 N 
ATOM     27  H10 UI1 d          26.624  11.686  30.199  0.00  0.00     0.184 HD
BRANCH  26  28
ATOM     28  C14 UI1 d          27.303  13.645  30.595  0.00  0.00     0.726 A 
ATOM     29  N15 UI1 d          28.237  13.883  31.547  0.00  0.00    -0.075 NA
ATOM     30  C16 UI1 d          29.095  14.920  31.431  0.00  0.00     0.138 A 
ATOM     31  C17 UI1 d          29.025  15.763  30.301  0.00  0.00     0.040 A 
ATOM     32  C18 UI1 d          28.042  15.492  29.337  0.00  0.00     0.138 A 
ATOM     33  N19 UI1 d          27.206  14.440  29.506  0.00  0.00    -0.075 NA
ENDBRANCH  26  28
ENDBRANCH   3  26
BRANCH   6  34
ATOM     34  C27 UI1 d          26.037   7.682  32.384  0.00  0.00     0.102 C 
ATOM     35  N29 UI1 d          27.114   7.349  33.083  0.00  0.00    -0.385 N 
ATOM     36  H20 UI1 d          27.421   7.940  33.869  0.00  0.00     0.157 HD
ATOM     37  H21 UI1 d          27.643   6.500  32.840  0.00  0.00     0.157 HD
BRANCH  34  38
ATOM     38  N28 UI1 d          25.659   6.925  31.392  0.00  0.00    -0.385 N 
ATOM     39  H18 UI1 d          25.653   7.299  30.432  0.00  0.00     0.157 HD
ATOM     40  H19 UI1 d          25.367   5.953  31.569  0.00  0.00     0.157 HD
ENDBRANCH  34  38
ENDBRANCH   6  34
TORSDOF 8
ENDMDL
MODEL 8
REMARK VINA RESULT:      -7.5      2.776     10.293
REMARK  8 active torsions:
REMARK  status: ('A' for Active; 'I' for Inactive)
REMARK    1  A    between atoms: N1_1  and  C2_2 
REMARK    2  A    between atoms: C2_2  and  C3_3 
REMARK    3  A    between atoms: C6_6  and  N7_7 
REMARK       I    between atoms: N7_7  and  C8_8 
REMARK    4  A    between atoms: C8_8  and  C10_10 
REMARK    5  A    between atoms: C12_12  and  N13_13 
REMARK    6  A    between atoms: N13_13  and  C14_14 
REMARK    7  A    between atoms: C22_22  and  C27_27 
REMARK    8  A    between atoms: C27_27  and  N28_28 
ROOT
ATOM      1  C10 UI1 d          24.085  12.166  32.486  0.00  0.00     0.035 A 
ATOM      2  C11 UI1 d          25.334  12.531  31.933  0.00  0.00     0.048 A 
ATOM      3  C12 UI1 d          26.230  11.562  31.542  0.00  0.00     0.061 A 
ATOM      4  C20 UI1 d          25.892  10.175  31.691  0.00  0.00     0.002 A 
ATOM      5  C21 UI1 d          26.831   9.188  31.305  0.00  0.00     0.029 A 
ATOM      6  C22 UI1 d          26.518   7.818  31.439  0.00  0.00     0.008 A 
ATOM      7  C23 UI1 d          25.267   7.422  31.951  0.00  0.00     0.016 A 
ATOM      8  C24 UI1 d          24.325   8.404  32.343  0.00  0.00     0.013 A 
ATOM      9  C25 UI1 d          24.642   9.788  32.219  0.00  0.00    -0.023 A 
ATOM     10  C26 UI1 d          23.728  10.786  32.626  0.00  0.00     0.029 A 
ENDROOT
BRANCH   1  11
ATOM     11  C8  UI1 d          23.199  13.270  32.968  0.00  0.00     0.256 C 
ATOM     12  N7  UI1 d          23.367  14.477  32.461  0.00  0.00    -0.323 N 
ATOM     13  H8  UI1 d          24.144  14.651  31.855  0.00  0.00     0.169 HD
ATOM     14  O9  UI1 d          22.295  13.031  33.760  0.00  0.00    -0.267 OA
BRANCH  12  15
ATOM     15  C6  UI1 d          22.453  15.549  32.763  0.00  0.00     0.035 A 
ATOM     16  C5  UI1 d          22.877  16.372  33.852  0.00  0.00     0.030 A 
ATOM     17  C4  UI1 d          22.101  17.452  34.296  0.00  0.00     0.011 A 
ATOM     18  C3  UI1 d          20.882  17.735  33.658  0.00  0.00    -0.033 A 
ATOM     19  C31 UI1 d          20.447  16.926  32.576  0.00  0.00     0.011 A 
ATOM     20  C30 UI1 d          21.236  15.820  32.126  0.00  0.00     0.030 A 
BRANCH  18  21
ATOM     21  C2  UI1 d          20.028  18.915  34.147  0.00  0.00     0.268 C 
BRANCH  21  22
ATOM     22  N1  UI1 d          18.608  18.662  33.941  0.00  0.00    -0.075 N 
ATOM     23  H1  UI1 d          18.489  18.000  33.190  0.00  0.00     0.274 HD
ATOM     24  H2  UI1 d          18.144  19.526  33.704  0.00  0.00     0.274 HD
ATOM     25  H3  UI1 d          18.208  18.286  34.786  0.00  0.00     0.274 HD
ENDBRANCH  21  22
ENDBRANCH  18  21
ENDBRANCH  12  15
ENDBRANCH   1  11
BRANCH   3  26
ATOM     26  N13 UI1 d          27.519  11.968  31.043  0.00  0.00    -0.187 N 
ATOM     27  H10 UI1 d          28.309  11.996  31.701  0.00  0.00     0.184 HD
BRANCH  26  28
ATOM     28  C14 UI1 d          27.758  12.329  29.691  0.00  0.00     0.726 A 
ATOM     29  N15 UI1 d          27.210  11.564  28.717  0.00  0.00    -0.075 NA
ATOM     30  C16 UI1 d          27.389  11.871  27.413  0.00  0.00     0.138 A 
ATOM     31  C17 UI1 d          28.148  13.007  27.060  0.00  0.00     0.040 A 
ATOM     32  C18 UI1 d          28.705  13.775  28.093  0.00  0.00     0.138 A 
ATOM     33  N19 UI1 d          28.496  13.419  29.383  0.00  0.00    -0.075 NA
ENDBRANCH  26  28
ENDBRANCH   3  26
BRANCH   6  34
ATOM     34  C27 UI1 d          27.549   6.841  31.017  0.00  0.00     0.102 C 
ATOM     35  N29 UI1 d          27.477   6.245  29.834  0.00  0.00    -0.385 N 
ATOM     36  H20 UI1 d          26.698   6.461  29.195  0.00  0.00     0.157 HD
ATOM     37  H21 UI1 d          28.200   5.568  29.554  0.00  0.00     0.157 HD
BRANCH  34  38
ATOM     38  N28 UI1 d          28.539   6.559  31.816  0.00  0.00    -0.385 N 
ATOM     39  H18 UI1 d          29.448   7.031  31.697  0.00  0.00     0.157 HD
ATOM     40  H19 UI1 d          28.414   5.865  32.566  0.00  0.00     0.157 HD
ENDBRANCH  34  38
ENDBRANCH   6  34
TORSDOF 8
ENDMDL
MODEL 9
REMARK VINA RESULT:      -7.5      3.666      4.310
REMARK  8 active torsions:
REMARK  status: ('A' for Active; 'I' for Inactive)
REMARK    1  A    between atoms: N1_1  and  C2_2 
REMARK    2  A    between atoms: C2_2  and  C3_3 
REMARK    3  A    between atoms: C6_6  and  N7_7 
REMARK       I    between atoms: N7_7  and  C8_8 
REMARK    4  A    between atoms: C8_8  and  C10_10 
REMARK    5  A    between atoms: C12_12  and  N13_13 
REMARK    6  A    between atoms: N13_13  and  C14_14 
REMARK    7  A    between atoms: C22_22  and  C27_27 
REMARK    8  A    between atoms: C27_27  and  N28_28 
ROOT
ATOM      1  C10 UI1 d          25.122  16.827  31.813  0.00  0.00     0.035 A 
ATOM      2  C11 UI1 d          25.188  17.893  32.740  0.00  0.00     0.048 A 
ATOM      3  C12 UI1 d          24.040  18.381  33.320  0.00  0.00     0.061 A 
ATOM      4  C20 UI1 d          22.769  17.800  32.986  0.00  0.00     0.002 A 
ATOM      5  C21 UI1 d          21.593  18.326  33.573  0.00  0.00     0.029 A 
ATOM      6  C22 UI1 d          20.333  17.768  33.264  0.00  0.00     0.008 A 
ATOM      7  C23 UI1 d          20.238  16.680  32.374  0.00  0.00     0.016 A 
ATOM      8  C24 UI1 d          21.411  16.153  31.779  0.00  0.00     0.013 A 
ATOM      9  C25 UI1 d          22.683  16.721  32.082  0.00  0.00    -0.023 A 
ATOM     10  C26 UI1 d          23.864  16.227  31.483  0.00  0.00     0.029 A 
ENDROOT
BRANCH   1  11
ATOM     11  C8  UI1 d          26.399  16.406  31.158  0.00  0.00     0.256 C 
ATOM     12  N7  UI1 d          26.430  16.316  29.842  0.00  0.00    -0.323 N 
ATOM     13  H8  UI1 d          25.582  16.422  29.323  0.00  0.00     0.169 HD
ATOM     14  O9  UI1 d          27.405  16.225  31.835  0.00  0.00    -0.267 OA
BRANCH  12  15
ATOM     15  C6  UI1 d          27.663  16.068  29.139  0.00  0.00     0.035 A 
ATOM     16  C5  UI1 d          28.326  17.259  28.708  0.00  0.00     0.030 A 
ATOM     17  C4  UI1 d          29.530  17.206  27.991  0.00  0.00     0.011 A 
ATOM     18  C3  UI1 d          30.101  15.958  27.692  0.00  0.00    -0.033 A 
ATOM     19  C31 UI1 d          29.454  14.767  28.113  0.00  0.00     0.011 A 
ATOM     20  C30 UI1 d          28.222  14.820  28.839  0.00  0.00     0.030 A 
BRANCH  18  21
ATOM     21  C2  UI1 d          31.417  15.898  26.903  0.00  0.00     0.268 C 
BRANCH  21  22
ATOM     22  N1  UI1 d          31.410  14.803  25.942  0.00  0.00    -0.075 N 
ATOM     23  H1  UI1 d          30.707  14.130  26.204  0.00  0.00     0.274 HD
ATOM     24  H2  UI1 d          32.314  14.357  25.932  0.00  0.00     0.274 HD
ATOM     25  H3  UI1 d          31.203  15.164  25.023  0.00  0.00     0.274 HD
ENDBRANCH  21  22
ENDBRANCH  18  21
ENDBRANCH  12  15
ENDBRANCH   1  11
BRANCH   3  26
ATOM     26  N13 UI1 d          24.135  19.509  34.209  0.00  0.00    -0.187 N 
ATOM     27  H10 UI1 d          23.946  20.447  33.829  0.00  0.00     0.184 HD
BRANCH  26  28
ATOM     28  C14 UI1 d          24.475  19.399  35.583  0.00  0.00     0.726 A 
ATOM     29  N15 UI1 d          25.069  20.458  36.182  0.00  0.00    -0.075 NA
ATOM     30  C16 UI1 d          25.399  20.418  37.492  0.00  0.00     0.138 A 
ATOM     31  C17 UI1 d          25.113  19.261  38.249  0.00  0.00     0.040 A 
ATOM     32  C18 UI1 d          24.502  18.180  37.596  0.00  0.00     0.138 A 
ATOM     33  N19 UI1 d          24.196  18.275  36.280  0.00  0.00    -0.075 NA
ENDBRANCH  26  28
ENDBRANCH   3  26
BRANCH   6  34
ATOM     34  C27 UI1 d          19.145  18.369  33.913  0.00  0.00     0.102 C 
ATOM     35  N29 UI1 d          17.923  17.943  33.622  0.00  0.00    -0.385 N 
ATOM     36  H20 UI1 d          17.792  17.183  32.939  0.00  0.00     0.157 HD
ATOM     37  H21 UI1 d          17.106  18.370  34.081  0.00  0.00     0.157 HD
BRANCH  34  38
ATOM     38  N28 UI1 d          19.298  19.330  34.780  0.00  0.00    -0.385 N 
ATOM     39  H18 UI1 d          19.472  20.293  34.458  0.00  0.00     0.157 HD
ATOM     40  H19 UI1 d          19.244  19.126  35.788  0.00  0.00     0.157 HD
ENDBRANCH  34  38
ENDBRANCH   6  34
TORSDOF 8
ENDMDL
MODEL 10
REMARK VINA RESULT:      -7.5      3.536      8.456
REMARK  8 active torsions:
REMARK  status: ('A' for Active; 'I' for Inactive)
REMARK    1  A    between atoms: N1_1  and  C2_2 
REMARK    2  A    between atoms: C2_2  and  C3_3 
REMARK    3  A    between atoms: C6_6  and  N7_7 
REMARK       I    between atoms: N7_7  and  C8_8 
REMARK    4  A    between atoms: C8_8  and  C10_10 
REMARK    5  A    between atoms: C12_12  and  N13_13 
REMARK    6  A    between atoms: N13_13  and  C14_14 
REMARK    7  A    between atoms: C22_22  and  C27_27 
REMARK    8  A    between atoms: C27_27  and  N28_28 
ROOT
ATOM      1  C10 UI1 d          25.107  17.433  36.187  0.00  0.00     0.035 A 
ATOM      2  C11 UI1 d          23.945  18.129  35.781  0.00  0.00     0.048 A 
ATOM      3  C12 UI1 d          23.553  18.117  34.462  0.00  0.00     0.061 A 
ATOM      4  C20 UI1 d          24.324  17.387  33.495  0.00  0.00     0.002 A 
ATOM      5  C21 UI1 d          23.922  17.399  32.138  0.00  0.00     0.029 A 
ATOM      6  C22 UI1 d          24.663  16.686  31.170  0.00  0.00     0.008 A 
ATOM      7  C23 UI1 d          25.803  15.951  31.549  0.00  0.00     0.016 A 
ATOM      8  C24 UI1 d          26.214  15.939  32.905  0.00  0.00     0.013 A 
ATOM      9  C25 UI1 d          25.474  16.666  33.882  0.00  0.00    -0.023 A 
ATOM     10  C26 UI1 d          25.877  16.689  35.236  0.00  0.00     0.029 A 
ENDROOT
BRANCH   1  11
ATOM     11  C8  UI1 d          25.521  17.563  37.618  0.00  0.00     0.256 C 
ATOM     12  N7  UI1 d          26.808  17.638  37.896  0.00  0.00    -0.323 N 
ATOM     13  H8  UI1 d          27.477  17.499  37.164  0.00  0.00     0.169 HD
ATOM     14  O9  UI1 d          24.671  17.669  38.496  0.00  0.00    -0.267 OA
BRANCH  12  15
ATOM     15  C6  UI1 d          27.270  17.918  39.232  0.00  0.00     0.035 A 
ATOM     16  C5  UI1 d          27.271  19.310  39.557  0.00  0.00     0.030 A 
ATOM     17  C4  UI1 d          27.707  19.767  40.809  0.00  0.00     0.011 A 
ATOM     18  C3  UI1 d          28.151  18.840  41.766  0.00  0.00    -0.033 A 
ATOM     19  C31 UI1 d          28.157  17.454  41.457  0.00  0.00     0.011 A 
ATOM     20  C30 UI1 d          27.717  16.988  40.177  0.00  0.00     0.030 A 
BRANCH  18  21
ATOM     21  C2  UI1 d          28.634  19.338  43.136  0.00  0.00     0.268 C 
BRANCH  21  22
ATOM     22  N1  UI1 d          28.805  18.235  44.072  0.00  0.00    -0.075 N 
ATOM     23  H1  UI1 d          29.684  17.776  43.894  0.00  0.00     0.274 HD
ATOM     24  H2  UI1 d          28.051  17.576  43.955  0.00  0.00     0.274 HD
ATOM     25  H3  UI1 d          28.797  18.591  45.016  0.00  0.00     0.274 HD
ENDBRANCH  21  22
ENDBRANCH  18  21
ENDBRANCH  12  15
ENDBRANCH   1  11
BRANCH   3  26
ATOM     26  N13 UI1 d          22.402  18.888  34.072  0.00  0.00    -0.187 N 
ATOM     27  H10 UI1 d          22.520  19.901  33.931  0.00  0.00     0.184 HD
BRANCH  26  28
ATOM     28  C14 UI1 d          21.113  18.329  33.870  0.00  0.00     0.726 A 
ATOM     29  N15 UI1 d          20.068  19.174  33.700  0.00  0.00    -0.075 NA
ATOM     30  C16 UI1 d          18.821  18.698  33.485  0.00  0.00     0.138 A 
ATOM     31  C17 UI1 d          18.605  17.304  33.428  0.00  0.00     0.040 A 
ATOM     32  C18 UI1 d          19.708  16.458  33.614  0.00  0.00     0.138 A 
ATOM     33  N19 UI1 d          20.935  16.990  33.829  0.00  0.00    -0.075 NA
ENDBRANCH  26  28
ENDBRANCH   3  26
BRANCH   6  34
ATOM     34  C27 UI1 d          24.185  16.745  29.769  0.00  0.00     0.102 C 
ATOM     35  N29 UI1 d          23.373  15.814  29.288  0.00  0.00    -0.385 N 
ATOM     36  H20 UI1 d          23.066  15.036  29.891  0.00  0.00     0.157 HD
ATOM     37  H21 UI1 d          23.049  15.867  28.312  0.00  0.00     0.157 HD
BRANCH  34  38
ATOM     38  N28 UI1 d          24.566  17.723  28.996  0.00  0.00    -0.385 N 
ATOM     39  H18 UI1 d          23.924  18.505  28.800  0.00  0.00     0.157 HD
ATOM     40  H19 UI1 d          25.508  17.714  28.581  0.00  0.00     0.157 HD
ENDBRANCH  34  38
ENDBRANCH   6  34
TORSDOF 8
ENDMDL
