MODEL 1
REMARK VINA RESULT:      -9.0      0.000      0.000
REMARK  15 active torsions:
REMARK  status: ('A' for Active; 'I' for Inactive)
REMARK    1  A    between atoms: PA_1  and  O5_4 
REMARK    2  A    between atoms: O3A_8  and  PA_1 
REMARK    3  A    between atoms: O5_4  and  C5_23 
REMARK    4  A    between atoms: PB_5  and  O3A_8 
REMARK    5  A    between atoms: O3_38  and  PB_5 
REMARK    6  A    between atoms: O3_30  and  PG_9 
REMARK    7  A    between atoms: C1_26  and  N9A_13 
REMARK    8  A    between atoms: C5_23  and  C4_24 
REMARK    9  A    between atoms: C2_27  and  O2_28 
REMARK   10  A    between atoms: C3_29  and  O3_30 
REMARK   11  A    between atoms: C5_32  and  O5_31 
REMARK   12  A    between atoms: O5_31  and  PD_39 
REMARK   13  A    between atoms: C4_33  and  C5_32 
REMARK   14  A    between atoms: C1_35  and  N1T_43 
REMARK   15  A    between atoms: C3_37  and  O3_38 
ROOT
ATOM      1  PA  PAX d         -28.397 -30.269  18.868  0.00  0.00     0.417 P 
ATOM      2  O1A PAX d         -27.390 -29.337  19.548  0.00  0.00    -0.624 OA
ATOM      3  O2A PAX d         -29.568 -30.749  19.732  0.00  0.00    -0.624 OA
ENDROOT
BRANCH   1   4
ATOM      4  O5  PAX d         -28.998 -29.600  17.551  0.00  0.00    -0.287 OA
BRANCH   4   5
ATOM      5  C5  PAX d         -30.390 -29.548  17.332  0.00  0.00     0.216 C 
BRANCH   5   6
ATOM      6  C4  PAX d         -30.892 -28.172  17.641  0.00  0.00     0.180 C 
ATOM      7  O4  PAX d         -29.909 -27.167  17.228  0.00  0.00    -0.353 OA
ATOM      8  C1  PAX d         -30.610 -26.020  16.800  0.00  0.00     0.262 C 
ATOM      9  C2  PAX d         -31.791 -26.636  16.024  0.00  0.00     0.199 C 
ATOM     10  C3  PAX d         -32.194 -27.816  16.921  0.00  0.00     0.199 C 
BRANCH   8  11
ATOM     11  N9A PAX d         -29.693 -25.061  16.109  0.00  0.00    -0.294 N 
ATOM     12  C4A PAX d         -28.847 -25.230  15.019  0.00  0.00     0.167 A 
ATOM     13  N3A PAX d         -28.642 -26.366  14.281  0.00  0.00    -0.222 NA
ATOM     14  C5A PAX d         -28.234 -23.973  14.816  0.00  0.00     0.149 A 
ATOM     15  C2A PAX d         -27.735 -26.167  13.274  0.00  0.00     0.237 A 
ATOM     16  N1A PAX d         -27.066 -25.012  12.962  0.00  0.00    -0.222 NA
ATOM     17  C6A PAX d         -27.297 -23.886  13.722  0.00  0.00     0.155 A 
ATOM     18  N6A PAX d         -26.643 -22.772  13.404  0.00  0.00    -0.382 N 
ATOM     19  H2  PAX d         -26.792 -21.913  13.952  0.00  0.00     0.157 HD
ATOM     20  H3  PAX d         -25.987 -22.768  12.610  0.00  0.00     0.157 HD
ATOM     21  N7A PAX d         -28.682 -23.053  15.751  0.00  0.00    -0.236 NA
ATOM     22  C8A PAX d         -29.535 -23.737  16.486  0.00  0.00     0.214 A 
ENDBRANCH   8  11
BRANCH   9  23
ATOM     23  O2  PAX d         -32.836 -25.712  15.749  0.00  0.00    -0.388 OA
ATOM     24  H10 PAX d         -32.514 -25.035  15.164  0.00  0.00     0.210 HD
ENDBRANCH   9  23
BRANCH  10  25
ATOM     25  O3  PAX d         -33.134 -27.417  17.922  0.00  0.00    -0.272 OA
BRANCH  25  26
ATOM     26  PG  PAX d         -34.661 -28.002  17.973  0.00  0.00     0.422 P 
ATOM     27  O1G PAX d         -35.303 -27.660  16.630  0.00  0.00    -0.617 OA
ATOM     28  O2G PAX d         -34.511 -29.499  18.210  0.00  0.00    -0.617 OA
ATOM     29  O3G PAX d         -35.408 -27.324  19.136  0.00  0.00    -0.617 OA
ENDBRANCH  25  26
ENDBRANCH  10  25
ENDBRANCH   5   6
ENDBRANCH   4   5
ENDBRANCH   1   4
BRANCH   1  30
ATOM     30  O3A PAX d         -27.650 -31.526  18.256  0.00  0.00    -0.180 OA
BRANCH  30  31
ATOM     31  PB  PAX d         -27.836 -33.086  18.402  0.00  0.00     0.418 P 
ATOM     32  O1B PAX d         -27.620 -33.462  19.812  0.00  0.00    -0.624 OA
ATOM     33  O2B PAX d         -29.116 -33.453  17.755  0.00  0.00    -0.624 OA
BRANCH  31  34
ATOM     34  O3  PAX d         -26.691 -33.681  17.411  0.00  0.00    -0.281 OA
BRANCH  34  35
ATOM     35  C3  PAX d         -25.762 -32.825  16.743  0.00  0.00     0.169 C 
ATOM     36  C4  PAX d         -25.553 -33.326  15.309  0.00  0.00     0.178 C 
ATOM     37  O4  PAX d         -24.235 -33.940  15.274  0.00  0.00    -0.356 OA
ATOM     38  C1  PAX d         -23.739 -34.068  16.591  0.00  0.00     0.235 C 
ATOM     39  C2  PAX d         -24.391 -32.945  17.388  0.00  0.00     0.089 C 
BRANCH  36  40
ATOM     40  C5  PAX d         -25.651 -32.230  14.261  0.00  0.00     0.217 C 
BRANCH  40  41
ATOM     41  O5  PAX d         -24.341 -31.692  13.953  0.00  0.00    -0.280 OA
BRANCH  41  42
ATOM     42  PD  PAX d         -23.851 -31.401  12.409  0.00  0.00     0.422 P 
ATOM     43  O1D PAX d         -22.337 -31.688  12.406  0.00  0.00    -0.617 OA
ATOM     44  O2D PAX d         -24.180 -29.919  12.118  0.00  0.00    -0.617 OA
ATOM     45  O3D PAX d         -24.639 -32.377  11.518  0.00  0.00    -0.617 OA
ENDBRANCH  41  42
ENDBRANCH  40  41
ENDBRANCH  36  40
BRANCH  38  46
ATOM     46  N1T PAX d         -22.241 -33.970  16.580  0.00  0.00    -0.282 N 
ATOM     47  C6T PAX d         -21.523 -33.576  15.422  0.00  0.00     0.110 A 
ATOM     48  C5T PAX d         -20.173 -33.478  15.388  0.00  0.00     0.022 A 
ATOM     49  C4T PAX d         -19.408 -33.789  16.601  0.00  0.00     0.256 A 
ATOM     50  CM5 PAX d         -19.486 -33.051  14.130  0.00  0.00     0.056 C 
ATOM     51  N3T PAX d         -20.176 -34.177  17.716  0.00  0.00    -0.275 N 
ATOM     52  O4T PAX d         -18.182 -33.729  16.720  0.00  0.00    -0.267 OA
ATOM     53  C2T PAX d         -21.563 -34.289  17.782  0.00  0.00     0.331 A 
ATOM     54  H20 PAX d         -19.670 -34.397  18.550  0.00  0.00     0.173 HD
ATOM     55  O2T PAX d         -22.132 -34.631  18.794  0.00  0.00    -0.246 OA
ENDBRANCH  38  46
ENDBRANCH  34  35
ENDBRANCH  31  34
ENDBRANCH  30  31
ENDBRANCH   1  30
TORSDOF 15
ENDMDL
MODEL 2
REMARK VINA RESULT:      -8.9      2.931     10.245
REMARK  15 active torsions:
REMARK  status: ('A' for Active; 'I' for Inactive)
REMARK    1  A    between atoms: PA_1  and  O5_4 
REMARK    2  A    between atoms: O3A_8  and  PA_1 
REMARK    3  A    between atoms: O5_4  and  C5_23 
REMARK    4  A    between atoms: PB_5  and  O3A_8 
REMARK    5  A    between atoms: O3_38  and  PB_5 
REMARK    6  A    between atoms: O3_30  and  PG_9 
REMARK    7  A    between atoms: C1_26  and  N9A_13 
REMARK    8  A    between atoms: C5_23  and  C4_24 
REMARK    9  A    between atoms: C2_27  and  O2_28 
REMARK   10  A    between atoms: C3_29  and  O3_30 
REMARK   11  A    between atoms: C5_32  and  O5_31 
REMARK   12  A    between atoms: O5_31  and  PD_39 
REMARK   13  A    between atoms: C4_33  and  C5_32 
REMARK   14  A    between atoms: C1_35  and  N1T_43 
REMARK   15  A    between atoms: C3_37  and  O3_38 
ROOT
ATOM      1  PA  PAX d         -28.417 -29.520  19.782  0.00  0.00     0.417 P 
ATOM      2  O1A PAX d         -28.495 -29.306  21.296  0.00  0.00    -0.624 OA
ATOM      3  O2A PAX d         -27.024 -29.415  19.152  0.00  0.00    -0.624 OA
ENDROOT
BRANCH   1   4
ATOM      4  O5  PAX d         -29.039 -30.929  19.369  0.00  0.00    -0.287 OA
BRANCH   4   5
ATOM      5  C5  PAX d         -28.289 -32.117  19.487  0.00  0.00     0.216 C 
BRANCH   5   6
ATOM      6  C4  PAX d         -27.658 -32.442  18.170  0.00  0.00     0.180 C 
ATOM      7  O4  PAX d         -26.197 -32.455  18.294  0.00  0.00    -0.353 OA
ATOM      8  C1  PAX d         -25.693 -33.435  17.414  0.00  0.00     0.262 C 
ATOM      9  C2  PAX d         -26.717 -34.575  17.579  0.00  0.00     0.199 C 
ATOM     10  C3  PAX d         -28.051 -33.815  17.620  0.00  0.00     0.199 C 
BRANCH   8  11
ATOM     11  N9A PAX d         -24.245 -33.699  17.682  0.00  0.00    -0.294 N 
ATOM     12  C4A PAX d         -23.175 -33.886  16.816  0.00  0.00     0.167 A 
ATOM     13  N3A PAX d         -23.188 -33.873  15.446  0.00  0.00    -0.222 NA
ATOM     14  C5A PAX d         -22.048 -34.092  17.643  0.00  0.00     0.149 A 
ATOM     15  C2A PAX d         -21.944 -34.093  14.918  0.00  0.00     0.237 A 
ATOM     16  N1A PAX d         -20.770 -34.308  15.594  0.00  0.00    -0.222 NA
ATOM     17  C6A PAX d         -20.790 -34.313  16.972  0.00  0.00     0.155 A 
ATOM     18  N6A PAX d         -19.643 -34.519  17.612  0.00  0.00    -0.382 N 
ATOM     19  H2  PAX d         -19.623 -34.529  18.642  0.00  0.00     0.157 HD
ATOM     20  H3  PAX d         -18.774 -34.669  17.079  0.00  0.00     0.157 HD
ATOM     21  N7A PAX d         -22.407 -34.037  18.982  0.00  0.00    -0.236 NA
ATOM     22  C8A PAX d         -23.703 -33.804  18.953  0.00  0.00     0.214 A 
ENDBRANCH   8  11
BRANCH   9  23
ATOM     23  O2  PAX d         -26.629 -35.570  16.567  0.00  0.00    -0.388 OA
ATOM     24  H10 PAX d         -27.457 -36.034  16.508  0.00  0.00     0.210 HD
ENDBRANCH   9  23
BRANCH  10  25
ATOM     25  O3  PAX d         -28.579 -33.608  16.307  0.00  0.00    -0.272 OA
BRANCH  25  26
ATOM     26  PG  PAX d         -29.938 -34.351  15.782  0.00  0.00     0.422 P 
ATOM     27  O1G PAX d         -30.550 -33.440  14.720  0.00  0.00    -0.617 OA
ATOM     28  O2G PAX d         -29.477 -35.695  15.237  0.00  0.00    -0.617 OA
ATOM     29  O3G PAX d         -30.892 -34.530  16.978  0.00  0.00    -0.617 OA
ENDBRANCH  25  26
ENDBRANCH  10  25
ENDBRANCH   5   6
ENDBRANCH   4   5
ENDBRANCH   1   4
BRANCH   1  30
ATOM     30  O3A PAX d         -29.402 -28.524  19.038  0.00  0.00    -0.180 OA
BRANCH  30  31
ATOM     31  PB  PAX d         -30.199 -28.588  17.677  0.00  0.00     0.418 P 
ATOM     32  O1B PAX d         -29.460 -29.446  16.732  0.00  0.00    -0.624 OA
ATOM     33  O2B PAX d         -31.607 -28.920  17.992  0.00  0.00    -0.624 OA
BRANCH  31  34
ATOM     34  O3  PAX d         -30.240 -27.030  17.210  0.00  0.00    -0.281 OA
BRANCH  34  35
ATOM     35  C3  PAX d         -30.676 -26.653  15.902  0.00  0.00     0.169 C 
ATOM     36  C4  PAX d         -29.470 -26.621  14.956  0.00  0.00     0.178 C 
ATOM     37  O4  PAX d         -29.174 -25.219  14.709  0.00  0.00    -0.356 OA
ATOM     38  C1  PAX d         -29.926 -24.416  15.596  0.00  0.00     0.235 C 
ATOM     39  C2  PAX d         -31.180 -25.219  15.919  0.00  0.00     0.089 C 
BRANCH  36  40
ATOM     40  C5  PAX d         -29.709 -27.349  13.642  0.00  0.00     0.217 C 
BRANCH  40  41
ATOM     41  O5  PAX d         -28.535 -28.102  13.251  0.00  0.00    -0.280 OA
BRANCH  41  42
ATOM     42  PD  PAX d         -27.548 -27.618  12.026  0.00  0.00     0.422 P 
ATOM     43  O1D PAX d         -26.528 -28.760  11.854  0.00  0.00    -0.617 OA
ATOM     44  O2D PAX d         -26.893 -26.296  12.489  0.00  0.00    -0.617 OA
ATOM     45  O3D PAX d         -28.451 -27.441  10.792  0.00  0.00    -0.617 OA
ENDBRANCH  41  42
ENDBRANCH  40  41
ENDBRANCH  36  40
BRANCH  38  46
ATOM     46  N1T PAX d         -30.239 -23.099  14.946  0.00  0.00    -0.282 N 
ATOM     47  C6T PAX d         -31.503 -22.833  14.359  0.00  0.00     0.110 A 
ATOM     48  C5T PAX d         -31.809 -21.654  13.770  0.00  0.00     0.022 A 
ATOM     49  C4T PAX d         -30.796 -20.593  13.735  0.00  0.00     0.256 A 
ATOM     50  CM5 PAX d         -33.167 -21.445  13.177  0.00  0.00     0.056 C 
ATOM     51  N3T PAX d         -29.561 -20.918  14.330  0.00  0.00    -0.275 N 
ATOM     52  O4T PAX d         -30.939 -19.469  13.248  0.00  0.00    -0.267 OA
ATOM     53  C2T PAX d         -29.215 -22.121  14.941  0.00  0.00     0.331 A 
ATOM     54  H20 PAX d         -28.857 -20.207  14.310  0.00  0.00     0.173 HD
ATOM     55  O2T PAX d         -28.122 -22.302  15.427  0.00  0.00    -0.246 OA
ENDBRANCH  38  46
ENDBRANCH  34  35
ENDBRANCH  31  34
ENDBRANCH  30  31
ENDBRANCH   1  30
TORSDOF 15
ENDMDL
MODEL 3
REMARK VINA RESULT:      -8.9      2.314      2.859
REMARK  15 active torsions:
REMARK  status: ('A' for Active; 'I' for Inactive)
REMARK    1  A    between atoms: PA_1  and  O5_4 
REMARK    2  A    between atoms: O3A_8  and  PA_1 
REMARK    3  A    between atoms: O5_4  and  C5_23 
REMARK    4  A    between atoms: PB_5  and  O3A_8 
REMARK    5  A    between atoms: O3_38  and  PB_5 
REMARK    6  A    between atoms: O3_30  and  PG_9 
REMARK    7  A    between atoms: C1_26  and  N9A_13 
REMARK    8  A    between atoms: C5_23  and  C4_24 
REMARK    9  A    between atoms: C2_27  and  O2_28 
REMARK   10  A    between atoms: C3_29  and  O3_30 
REMARK   11  A    between atoms: C5_32  and  O5_31 
REMARK   12  A    between atoms: O5_31  and  PD_39 
REMARK   13  A    between atoms: C4_33  and  C5_32 
REMARK   14  A    between atoms: C1_35  and  N1T_43 
REMARK   15  A    between atoms: C3_37  and  O3_38 
ROOT
ATOM      1  PA  PAX d         -29.064 -29.245  19.518  0.00  0.00     0.417 P 
ATOM      2  O1A PAX d         -27.556 -29.459  19.359  0.00  0.00    -0.624 OA
ATOM      3  O2A PAX d         -29.535 -28.727  20.882  0.00  0.00    -0.624 OA
ENDROOT
BRANCH   1   4
ATOM      4  O5  PAX d         -29.625 -28.260  18.397  0.00  0.00    -0.287 OA
BRANCH   4   5
ATOM      5  C5  PAX d         -30.996 -27.937  18.332  0.00  0.00     0.216 C 
BRANCH   5   6
ATOM      6  C4  PAX d         -31.160 -26.451  18.364  0.00  0.00     0.180 C 
ATOM      7  O4  PAX d         -30.034 -25.799  17.689  0.00  0.00    -0.353 OA
ATOM      8  C1  PAX d         -30.515 -24.631  17.063  0.00  0.00     0.262 C 
ATOM      9  C2  PAX d         -31.873 -25.100  16.505  0.00  0.00     0.199 C 
ATOM     10  C3  PAX d         -32.423 -25.955  17.656  0.00  0.00     0.199 C 
BRANCH   8  11
ATOM     11  N9A PAX d         -29.491 -24.064  16.132  0.00  0.00    -0.294 N 
ATOM     12  C4A PAX d         -28.776 -24.650  15.095  0.00  0.00     0.167 A 
ATOM     13  N3A PAX d         -28.840 -25.946  14.655  0.00  0.00    -0.222 NA
ATOM     14  C5A PAX d         -27.958 -23.624  14.571  0.00  0.00     0.149 A 
ATOM     15  C2A PAX d         -27.990 -26.174  13.605  0.00  0.00     0.237 A 
ATOM     16  N1A PAX d         -27.144 -25.282  12.999  0.00  0.00    -0.222 NA
ATOM     17  C6A PAX d         -27.105 -23.985  13.464  0.00  0.00     0.155 A 
ATOM     18  N6A PAX d         -26.282 -23.131  12.863  0.00  0.00    -0.382 N 
ATOM     19  H2  PAX d         -26.228 -22.154  13.185  0.00  0.00     0.157 HD
ATOM     20  H3  PAX d         -25.698 -23.445  12.074  0.00  0.00     0.157 HD
ATOM     21  N7A PAX d         -28.155 -22.438  15.262  0.00  0.00    -0.236 NA
ATOM     22  C8A PAX d         -29.063 -22.746  16.166  0.00  0.00     0.214 A 
ENDBRANCH   8  11
BRANCH   9  23
ATOM     23  O2  PAX d         -32.720 -24.035  16.096  0.00  0.00    -0.388 OA
ATOM     24  H10 PAX d         -33.340 -23.841  16.789  0.00  0.00     0.210 HD
ENDBRANCH   9  23
BRANCH  10  25
ATOM     25  O3  PAX d         -33.150 -25.162  18.598  0.00  0.00    -0.272 OA
BRANCH  25  26
ATOM     26  PG  PAX d         -34.461 -25.730  19.396  0.00  0.00     0.422 P 
ATOM     27  O1G PAX d         -34.148 -25.613  20.886  0.00  0.00    -0.617 OA
ATOM     28  O2G PAX d         -35.618 -24.848  18.947  0.00  0.00    -0.617 OA
ATOM     29  O3G PAX d         -34.685 -27.197  18.988  0.00  0.00    -0.617 OA
ENDBRANCH  25  26
ENDBRANCH  10  25
ENDBRANCH   5   6
ENDBRANCH   4   5
ENDBRANCH   1   4
BRANCH   1  30
ATOM     30  O3A PAX d         -29.844 -30.579  19.169  0.00  0.00    -0.180 OA
BRANCH  30  31
ATOM     31  PB  PAX d         -29.638 -31.718  18.095  0.00  0.00     0.418 P 
ATOM     32  O1B PAX d         -30.321 -32.940  18.558  0.00  0.00    -0.624 OA
ATOM     33  O2B PAX d         -29.993 -31.161  16.770  0.00  0.00    -0.624 OA
BRANCH  31  34
ATOM     34  O3  PAX d         -28.020 -31.882  18.050  0.00  0.00    -0.281 OA
BRANCH  34  35
ATOM     35  C3  PAX d         -27.359 -32.475  16.930  0.00  0.00     0.169 C 
ATOM     36  C4  PAX d         -27.492 -34.000  17.014  0.00  0.00     0.178 C 
ATOM     37  O4  PAX d         -26.187 -34.509  17.407  0.00  0.00    -0.356 OA
ATOM     38  C1  PAX d         -25.360 -33.431  17.796  0.00  0.00     0.235 C 
ATOM     39  C2  PAX d         -25.863 -32.222  17.018  0.00  0.00     0.089 C 
BRANCH  36  40
ATOM     40  C5  PAX d         -27.937 -34.645  15.710  0.00  0.00     0.217 C 
BRANCH  40  41
ATOM     41  O5  PAX d         -26.800 -35.170  14.981  0.00  0.00    -0.280 OA
BRANCH  41  42
ATOM     42  PD  PAX d         -26.810 -36.668  14.299  0.00  0.00     0.422 P 
ATOM     43  O1D PAX d         -26.111 -36.495  12.937  0.00  0.00    -0.617 OA
ATOM     44  O2D PAX d         -28.295 -37.076  14.161  0.00  0.00    -0.617 OA
ATOM     45  O3D PAX d         -26.022 -37.580  15.256  0.00  0.00    -0.617 OA
ENDBRANCH  41  42
ENDBRANCH  40  41
ENDBRANCH  36  40
BRANCH  38  46
ATOM     46  N1T PAX d         -23.926 -33.756  17.490  0.00  0.00    -0.282 N 
ATOM     47  C6T PAX d         -23.435 -33.800  16.160  0.00  0.00     0.110 A 
ATOM     48  C5T PAX d         -22.147 -34.087  15.859  0.00  0.00     0.022 A 
ATOM     49  C4T PAX d         -21.207 -34.366  16.950  0.00  0.00     0.256 A 
ATOM     50  CM5 PAX d         -21.700 -34.109  14.431  0.00  0.00     0.056 C 
ATOM     51  N3T PAX d         -21.755 -34.311  18.247  0.00  0.00    -0.275 N 
ATOM     52  O4T PAX d         -20.008 -34.626  16.827  0.00  0.00    -0.267 OA
ATOM     53  C2T PAX d         -23.074 -34.020  18.590  0.00  0.00     0.331 A 
ATOM     54  H20 PAX d         -21.129 -34.503  19.004  0.00  0.00     0.173 HD
ATOM     55  O2T PAX d         -23.448 -33.996  19.740  0.00  0.00    -0.246 OA
ENDBRANCH  38  46
ENDBRANCH  34  35
ENDBRANCH  31  34
ENDBRANCH  30  31
ENDBRANCH   1  30
TORSDOF 15
ENDMDL
MODEL 4
REMARK VINA RESULT:      -8.9      1.684      2.364
REMARK  15 active torsions:
REMARK  status: ('A' for Active; 'I' for Inactive)
REMARK    1  A    between atoms: PA_1  and  O5_4 
REMARK    2  A    between atoms: O3A_8  and  PA_1 
REMARK    3  A    between atoms: O5_4  and  C5_23 
REMARK    4  A    between atoms: PB_5  and  O3A_8 
REMARK    5  A    between atoms: O3_38  and  PB_5 
REMARK    6  A    between atoms: O3_30  and  PG_9 
REMARK    7  A    between atoms: C1_26  and  N9A_13 
REMARK    8  A    between atoms: C5_23  and  C4_24 
REMARK    9  A    between atoms: C2_27  and  O2_28 
REMARK   10  A    between atoms: C3_29  and  O3_30 
REMARK   11  A    between atoms: C5_32  and  O5_31 
REMARK   12  A    between atoms: O5_31  and  PD_39 
REMARK   13  A    between atoms: C4_33  and  C5_32 
REMARK   14  A    between atoms: C1_35  and  N1T_43 
REMARK   15  A    between atoms: C3_37  and  O3_38 
ROOT
ATOM      1  PA  PAX d         -27.898 -30.517  18.788  0.00  0.00     0.417 P 
ATOM      2  O1A PAX d         -26.551 -29.811  18.969  0.00  0.00    -0.624 OA
ATOM      3  O2A PAX d         -28.667 -30.851  20.071  0.00  0.00    -0.624 OA
ENDROOT
BRANCH   1   4
ATOM      4  O5  PAX d         -28.864 -29.674  17.840  0.00  0.00    -0.287 OA
BRANCH   4   5
ATOM      5  C5  PAX d         -29.892 -28.872  18.378  0.00  0.00     0.216 C 
BRANCH   5   6
ATOM      6  C4  PAX d         -30.632 -28.198  17.265  0.00  0.00     0.180 C 
ATOM      7  O4  PAX d         -29.832 -27.101  16.713  0.00  0.00    -0.353 OA
ATOM      8  C1  PAX d         -30.105 -27.014  15.331  0.00  0.00     0.262 C 
ATOM      9  C2  PAX d         -30.175 -28.498  14.923  0.00  0.00     0.199 C 
ATOM     10  C3  PAX d         -30.954 -29.123  16.090  0.00  0.00     0.199 C 
BRANCH   8  11
ATOM     11  N9A PAX d         -29.129 -26.107  14.651  0.00  0.00    -0.294 N 
ATOM     12  C4A PAX d         -28.810 -24.773  14.877  0.00  0.00     0.167 A 
ATOM     13  N3A PAX d         -29.337 -23.930  15.820  0.00  0.00    -0.222 NA
ATOM     14  C5A PAX d         -27.814 -24.455  13.927  0.00  0.00     0.149 A 
ATOM     15  C2A PAX d         -28.784 -22.679  15.755  0.00  0.00     0.237 A 
ATOM     16  N1A PAX d         -27.818 -22.230  14.892  0.00  0.00    -0.222 NA
ATOM     17  C6A PAX d         -27.308 -23.104  13.956  0.00  0.00     0.155 A 
ATOM     18  N6A PAX d         -26.368 -22.655  13.129  0.00  0.00    -0.382 N 
ATOM     19  H2  PAX d         -25.965 -23.281  12.418  0.00  0.00     0.157 HD
ATOM     20  H3  PAX d         -26.043 -21.680  13.199  0.00  0.00     0.157 HD
ATOM     21  N7A PAX d         -27.524 -25.554  13.134  0.00  0.00    -0.236 NA
ATOM     22  C8A PAX d         -28.319 -26.498  13.597  0.00  0.00     0.214 A 
ENDBRANCH   8  11
BRANCH   9  23
ATOM     23  O2  PAX d         -30.752 -28.710  13.641  0.00  0.00    -0.388 OA
ATOM     24  H10 PAX d         -30.146 -28.419  12.970  0.00  0.00     0.210 HD
ENDBRANCH   9  23
BRANCH  10  25
ATOM     25  O3  PAX d         -32.367 -29.056  15.876  0.00  0.00    -0.272 OA
BRANCH  25  26
ATOM     26  PG  PAX d         -33.397 -30.183  16.463  0.00  0.00     0.422 P 
ATOM     27  O1G PAX d         -32.724 -31.538  16.255  0.00  0.00    -0.617 OA
ATOM     28  O2G PAX d         -33.595 -29.822  17.929  0.00  0.00    -0.617 OA
ATOM     29  O3G PAX d         -34.720 -30.094  15.681  0.00  0.00    -0.617 OA
ENDBRANCH  25  26
ENDBRANCH  10  25
ENDBRANCH   5   6
ENDBRANCH   4   5
ENDBRANCH   1   4
BRANCH   1  30
ATOM     30  O3A PAX d         -27.711 -31.838  17.932  0.00  0.00    -0.180 OA
BRANCH  30  31
ATOM     31  PB  PAX d         -27.807 -33.378  18.264  0.00  0.00     0.418 P 
ATOM     32  O1B PAX d         -27.634 -33.564  19.718  0.00  0.00    -0.624 OA
ATOM     33  O2B PAX d         -29.031 -33.905  17.619  0.00  0.00    -0.624 OA
BRANCH  31  34
ATOM     34  O3  PAX d         -26.583 -34.011  17.400  0.00  0.00    -0.281 OA
BRANCH  34  35
ATOM     35  C3  PAX d         -25.736 -33.192  16.591  0.00  0.00     0.169 C 
ATOM     36  C4  PAX d         -25.479 -33.896  15.254  0.00  0.00     0.178 C 
ATOM     37  O4  PAX d         -24.110 -34.383  15.299  0.00  0.00    -0.356 OA
ATOM     38  C1  PAX d         -23.606 -34.251  16.613  0.00  0.00     0.235 C 
ATOM     39  C2  PAX d         -24.361 -33.080  17.229  0.00  0.00     0.089 C 
BRANCH  36  40
ATOM     40  C5  PAX d         -25.678 -32.995  14.044  0.00  0.00     0.217 C 
BRANCH  40  41
ATOM     41  O5  PAX d         -26.529 -31.870  14.375  0.00  0.00    -0.280 OA
BRANCH  41  42
ATOM     42  PD  PAX d         -28.031 -31.684  13.728  0.00  0.00     0.422 P 
ATOM     43  O1D PAX d         -28.041 -30.261  13.136  0.00  0.00    -0.617 OA
ATOM     44  O2D PAX d         -29.033 -31.855  14.891  0.00  0.00    -0.617 OA
ATOM     45  O3D PAX d         -28.170 -32.772  12.649  0.00  0.00    -0.617 OA
ENDBRANCH  41  42
ENDBRANCH  40  41
ENDBRANCH  36  40
BRANCH  38  46
ATOM     46  N1T PAX d         -22.123 -34.019  16.567  0.00  0.00    -0.282 N 
ATOM     47  C6T PAX d         -21.464 -33.618  15.376  0.00  0.00     0.110 A 
ATOM     48  C5T PAX d         -20.130 -33.400  15.310  0.00  0.00     0.022 A 
ATOM     49  C4T PAX d         -19.319 -33.581  16.520  0.00  0.00     0.256 A 
ATOM     50  CM5 PAX d         -19.505 -32.974  14.019  0.00  0.00     0.056 C 
ATOM     51  N3T PAX d         -20.030 -33.983  17.668  0.00  0.00    -0.275 N 
ATOM     52  O4T PAX d         -18.102 -33.404  16.611  0.00  0.00    -0.267 OA
ATOM     53  C2T PAX d         -21.400 -34.217  17.768  0.00  0.00     0.331 A 
ATOM     54  H20 PAX d         -19.493 -34.115  18.501  0.00  0.00     0.173 HD
ATOM     55  O2T PAX d         -21.918 -34.559  18.806  0.00  0.00    -0.246 OA
ENDBRANCH  38  46
ENDBRANCH  34  35
ENDBRANCH  31  34
ENDBRANCH  30  31
ENDBRANCH   1  30
TORSDOF 15
ENDMDL
MODEL 5
REMARK VINA RESULT:      -8.7      2.618      3.557
REMARK  15 active torsions:
REMARK  status: ('A' for Active; 'I' for Inactive)
REMARK    1  A    between atoms: PA_1  and  O5_4 
REMARK    2  A    between atoms: O3A_8  and  PA_1 
REMARK    3  A    between atoms: O5_4  and  C5_23 
REMARK    4  A    between atoms: PB_5  and  O3A_8 
REMARK    5  A    between atoms: O3_38  and  PB_5 
REMARK    6  A    between atoms: O3_30  and  PG_9 
REMARK    7  A    between atoms: C1_26  and  N9A_13 
REMARK    8  A    between atoms: C5_23  and  C4_24 
REMARK    9  A    between atoms: C2_27  and  O2_28 
REMARK   10  A    between atoms: C3_29  and  O3_30 
REMARK   11  A    between atoms: C5_32  and  O5_31 
REMARK   12  A    between atoms: O5_31  and  PD_39 
REMARK   13  A    between atoms: C4_33  and  C5_32 
REMARK   14  A    between atoms: C1_35  and  N1T_43 
REMARK   15  A    between atoms: C3_37  and  O3_38 
ROOT
ATOM      1  PA  PAX d         -30.057 -29.230  16.834  0.00  0.00     0.417 P 
ATOM      2  O1A PAX d         -31.392 -29.976  16.907  0.00  0.00    -0.624 OA
ATOM      3  O2A PAX d         -29.545 -28.889  15.429  0.00  0.00    -0.624 OA
ENDROOT
BRANCH   1   4
ATOM      4  O5  PAX d         -30.107 -27.880  17.680  0.00  0.00    -0.287 OA
BRANCH   4   5
ATOM      5  C5  PAX d         -31.297 -27.462  18.312  0.00  0.00     0.216 C 
BRANCH   5   6
ATOM      6  C4  PAX d         -31.350 -25.966  18.334  0.00  0.00     0.180 C 
ATOM      7  O4  PAX d         -30.179 -25.405  17.654  0.00  0.00    -0.353 OA
ATOM      8  C1  PAX d         -30.574 -24.208  17.020  0.00  0.00     0.262 C 
ATOM      9  C2  PAX d         -31.963 -24.579  16.467  0.00  0.00     0.199 C 
ATOM     10  C3  PAX d         -32.574 -25.383  17.625  0.00  0.00     0.199 C 
BRANCH   8  11
ATOM     11  N9A PAX d         -29.512 -23.725  16.084  0.00  0.00    -0.294 N 
ATOM     12  C4A PAX d         -28.810 -24.383  15.081  0.00  0.00     0.167 A 
ATOM     13  N3A PAX d         -28.928 -25.691  14.690  0.00  0.00    -0.222 NA
ATOM     14  C5A PAX d         -27.939 -23.417  14.531  0.00  0.00     0.149 A 
ATOM     15  C2A PAX d         -28.076 -25.999  13.663  0.00  0.00     0.237 A 
ATOM     16  N1A PAX d         -27.181 -25.170  13.036  0.00  0.00    -0.222 NA
ATOM     17  C6A PAX d         -27.088 -23.859  13.452  0.00  0.00     0.155 A 
ATOM     18  N6A PAX d         -26.219 -23.067  12.831  0.00  0.00    -0.382 N 
ATOM     19  H2  PAX d         -26.124 -22.082  13.117  0.00  0.00     0.157 HD
ATOM     20  H3  PAX d         -25.639 -23.438  12.064  0.00  0.00     0.157 HD
ATOM     21  N7A PAX d         -28.091 -22.197  15.172  0.00  0.00    -0.236 NA
ATOM     22  C8A PAX d         -29.024 -22.428  16.074  0.00  0.00     0.214 A 
ENDBRANCH   8  11
BRANCH   9  23
ATOM     23  O2  PAX d         -32.730 -23.457  16.052  0.00  0.00    -0.388 OA
ATOM     24  H10 PAX d         -33.455 -23.751  15.512  0.00  0.00     0.210 HD
ENDBRANCH   9  23
BRANCH  10  25
ATOM     25  O3  PAX d         -33.238 -24.532  18.563  0.00  0.00    -0.272 OA
BRANCH  25  26
ATOM     26  PG  PAX d         -34.374 -25.088  19.600  0.00  0.00     0.422 P 
ATOM     27  O1G PAX d         -35.136 -26.187  18.862  0.00  0.00    -0.617 OA
ATOM     28  O2G PAX d         -33.601 -25.592  20.811  0.00  0.00    -0.617 OA
ATOM     29  O3G PAX d         -35.307 -23.922  19.977  0.00  0.00    -0.617 OA
ENDBRANCH  25  26
ENDBRANCH  10  25
ENDBRANCH   5   6
ENDBRANCH   4   5
ENDBRANCH   1   4
BRANCH   1  30
ATOM     30  O3A PAX d         -28.937 -30.037  17.614  0.00  0.00    -0.180 OA
BRANCH  30  31
ATOM     31  PB  PAX d         -28.816 -30.591  19.087  0.00  0.00     0.418 P 
ATOM     32  O1B PAX d         -28.613 -29.456  20.008  0.00  0.00    -0.624 OA
ATOM     33  O2B PAX d         -29.956 -31.505  19.323  0.00  0.00    -0.624 OA
BRANCH  31  34
ATOM     34  O3  PAX d         -27.518 -31.568  19.000  0.00  0.00    -0.281 OA
BRANCH  34  35
ATOM     35  C3  PAX d         -27.125 -32.181  17.770  0.00  0.00     0.169 C 
ATOM     36  C4  PAX d         -27.296 -33.700  17.884  0.00  0.00     0.178 C 
ATOM     37  O4  PAX d         -25.959 -34.260  18.002  0.00  0.00    -0.356 OA
ATOM     38  C1  PAX d         -25.029 -33.217  18.210  0.00  0.00     0.235 C 
ATOM     39  C2  PAX d         -25.634 -31.985  17.548  0.00  0.00     0.089 C 
BRANCH  36  40
ATOM     40  C5  PAX d         -28.024 -34.320  16.702  0.00  0.00     0.217 C 
BRANCH  40  41
ATOM     41  O5  PAX d         -29.356 -34.745  17.083  0.00  0.00    -0.280 OA
BRANCH  41  42
ATOM     42  PD  PAX d         -30.710 -34.126  16.381  0.00  0.00     0.422 P 
ATOM     43  O1D PAX d         -30.258 -32.806  15.727  0.00  0.00    -0.617 OA
ATOM     44  O2D PAX d         -31.734 -33.910  17.518  0.00  0.00    -0.617 OA
ATOM     45  O3D PAX d         -31.171 -35.170  15.347  0.00  0.00    -0.617 OA
ENDBRANCH  41  42
ENDBRANCH  40  41
ENDBRANCH  36  40
BRANCH  38  46
ATOM     46  N1T PAX d         -23.702 -33.595  17.617  0.00  0.00    -0.282 N 
ATOM     47  C6T PAX d         -23.512 -33.706  16.216  0.00  0.00     0.110 A 
ATOM     48  C5T PAX d         -22.326 -34.042  15.657  0.00  0.00     0.022 A 
ATOM     49  C4T PAX d         -21.177 -34.304  16.531  0.00  0.00     0.256 A 
ATOM     50  CM5 PAX d         -22.200 -34.134  14.169  0.00  0.00     0.056 C 
ATOM     51  N3T PAX d         -21.430 -34.182  17.912  0.00  0.00    -0.275 N 
ATOM     52  O4T PAX d         -20.039 -34.604  16.164  0.00  0.00    -0.267 OA
ATOM     53  C2T PAX d         -22.637 -33.840  18.517  0.00  0.00     0.331 A 
ATOM     54  H20 PAX d         -20.659 -34.361  18.524  0.00  0.00     0.173 HD
ATOM     55  O2T PAX d         -22.752 -33.759  19.719  0.00  0.00    -0.246 OA
ENDBRANCH  38  46
ENDBRANCH  34  35
ENDBRANCH  31  34
ENDBRANCH  30  31
ENDBRANCH   1  30
TORSDOF 15
ENDMDL
MODEL 6
REMARK VINA RESULT:      -8.6      5.378     10.802
REMARK  15 active torsions:
REMARK  status: ('A' for Active; 'I' for Inactive)
REMARK    1  A    between atoms: PA_1  and  O5_4 
REMARK    2  A    between atoms: O3A_8  and  PA_1 
REMARK    3  A    between atoms: O5_4  and  C5_23 
REMARK    4  A    between atoms: PB_5  and  O3A_8 
REMARK    5  A    between atoms: O3_38  and  PB_5 
REMARK    6  A    between atoms: O3_30  and  PG_9 
REMARK    7  A    between atoms: C1_26  and  N9A_13 
REMARK    8  A    between atoms: C5_23  and  C4_24 
REMARK    9  A    between atoms: C2_27  and  O2_28 
REMARK   10  A    between atoms: C3_29  and  O3_30 
REMARK   11  A    between atoms: C5_32  and  O5_31 
REMARK   12  A    between atoms: O5_31  and  PD_39 
REMARK   13  A    between atoms: C4_33  and  C5_32 
REMARK   14  A    between atoms: C1_35  and  N1T_43 
REMARK   15  A    between atoms: C3_37  and  O3_38 
ROOT
ATOM      1  PA  PAX d         -30.584 -32.980  14.566  0.00  0.00     0.417 P 
ATOM      2  O1A PAX d         -31.349 -31.823  13.918  0.00  0.00    -0.624 OA
ATOM      3  O2A PAX d         -30.294 -34.189  13.669  0.00  0.00    -0.624 OA
ENDROOT
BRANCH   1   4
ATOM      4  O5  PAX d         -29.200 -32.480  15.181  0.00  0.00    -0.287 OA
BRANCH   4   5
ATOM      5  C5  PAX d         -28.162 -33.389  15.472  0.00  0.00     0.216 C 
BRANCH   5   6
ATOM      6  C4  PAX d         -27.724 -33.207  16.891  0.00  0.00     0.180 C 
ATOM      7  O4  PAX d         -26.388 -33.778  17.089  0.00  0.00    -0.353 OA
ATOM      8  C1  PAX d         -25.714 -32.991  18.046  0.00  0.00     0.262 C 
ATOM      9  C2  PAX d         -26.137 -31.564  17.646  0.00  0.00     0.199 C 
ATOM     10  C3  PAX d         -27.629 -31.742  17.324  0.00  0.00     0.199 C 
BRANCH   8  11
ATOM     11  N9A PAX d         -24.261 -33.342  18.096  0.00  0.00    -0.294 N 
ATOM     12  C4A PAX d         -23.283 -33.329  17.109  0.00  0.00     0.167 A 
ATOM     13  N3A PAX d         -23.420 -32.974  15.792  0.00  0.00    -0.222 NA
ATOM     14  C5A PAX d         -22.096 -33.757  17.744  0.00  0.00     0.149 A 
ATOM     15  C2A PAX d         -22.240 -33.080  15.106  0.00  0.00     0.237 A 
ATOM     16  N1A PAX d         -21.020 -33.480  15.589  0.00  0.00    -0.222 NA
ATOM     17  C6A PAX d         -20.915 -33.828  16.918  0.00  0.00     0.155 A 
ATOM     18  N6A PAX d         -19.724 -34.210  17.371  0.00  0.00    -0.382 N 
ATOM     19  H2  PAX d         -19.611 -34.477  18.360  0.00  0.00     0.157 HD
ATOM     20  H3  PAX d         -18.915 -34.238  16.734  0.00  0.00     0.157 HD
ATOM     21  N7A PAX d         -22.328 -34.030  19.084  0.00  0.00    -0.236 NA
ATOM     22  C8A PAX d         -23.611 -33.772  19.242  0.00  0.00     0.214 A 
ENDBRANCH   8  11
BRANCH   9  23
ATOM     23  O2  PAX d         -25.855 -30.587  18.639  0.00  0.00    -0.388 OA
ATOM     24  H10 PAX d         -26.621 -30.463  19.187  0.00  0.00     0.210 HD
ENDBRANCH   9  23
BRANCH  10  25
ATOM     25  O3  PAX d         -28.440 -31.594  18.492  0.00  0.00    -0.272 OA
BRANCH  25  26
ATOM     26  PG  PAX d         -29.611 -30.457  18.608  0.00  0.00     0.422 P 
ATOM     27  O1G PAX d         -29.501 -29.861  20.009  0.00  0.00    -0.617 OA
ATOM     28  O2G PAX d         -29.312 -29.458  17.498  0.00  0.00    -0.617 OA
ATOM     29  O3G PAX d         -30.976 -31.136  18.397  0.00  0.00    -0.617 OA
ENDBRANCH  25  26
ENDBRANCH  10  25
ENDBRANCH   5   6
ENDBRANCH   4   5
ENDBRANCH   1   4
BRANCH   1  30
ATOM     30  O3A PAX d         -31.337 -33.469  15.872  0.00  0.00    -0.180 OA
BRANCH  30  31
ATOM     31  PB  PAX d         -31.740 -34.888  16.436  0.00  0.00     0.418 P 
ATOM     32  O1B PAX d         -32.812 -35.448  15.591  0.00  0.00    -0.624 OA
ATOM     33  O2B PAX d         -30.498 -35.671  16.624  0.00  0.00    -0.624 OA
BRANCH  31  34
ATOM     34  O3  PAX d         -32.243 -34.547  17.945  0.00  0.00    -0.281 OA
BRANCH  34  35
ATOM     35  C3  PAX d         -33.629 -34.380  18.252  0.00  0.00     0.169 C 
ATOM     36  C4  PAX d         -33.826 -33.053  18.994  0.00  0.00     0.178 C 
ATOM     37  O4  PAX d         -34.081 -33.391  20.386  0.00  0.00    -0.356 OA
ATOM     38  C1  PAX d         -33.819 -34.765  20.592  0.00  0.00     0.235 C 
ATOM     39  C2  PAX d         -34.069 -35.439  19.249  0.00  0.00     0.089 C 
BRANCH  36  40
ATOM     40  C5  PAX d         -34.964 -32.210  18.440  0.00  0.00     0.217 C 
BRANCH  40  41
ATOM     41  O5  PAX d         -34.704 -30.799  18.644  0.00  0.00    -0.280 OA
BRANCH  41  42
ATOM     42  PD  PAX d         -34.286 -29.796  17.407  0.00  0.00     0.422 P 
ATOM     43  O1D PAX d         -33.618 -30.706  16.358  0.00  0.00    -0.617 OA
ATOM     44  O2D PAX d         -33.311 -28.753  18.001  0.00  0.00    -0.617 OA
ATOM     45  O3D PAX d         -35.597 -29.172  16.899  0.00  0.00    -0.617 OA
ENDBRANCH  41  42
ENDBRANCH  40  41
ENDBRANCH  36  40
BRANCH  38  46
ATOM     46  N1T PAX d         -34.713 -35.294  21.676  0.00  0.00    -0.282 N 
ATOM     47  C6T PAX d         -35.883 -36.041  21.386  0.00  0.00     0.110 A 
ATOM     48  C5T PAX d         -36.703 -36.531  22.345  0.00  0.00     0.022 A 
ATOM     49  C4T PAX d         -36.374 -36.286  23.753  0.00  0.00     0.256 A 
ATOM     50  CM5 PAX d         -37.917 -37.315  21.961  0.00  0.00     0.056 C 
ATOM     51  N3T PAX d         -35.203 -35.535  23.978  0.00  0.00    -0.275 N 
ATOM     52  O4T PAX d         -37.017 -36.681  24.729  0.00  0.00    -0.267 OA
ATOM     53  C2T PAX d         -34.341 -35.016  23.014  0.00  0.00     0.331 A 
ATOM     54  H20 PAX d         -34.966 -35.354  24.933  0.00  0.00     0.173 HD
ATOM     55  O2T PAX d         -33.354 -34.383  23.310  0.00  0.00    -0.246 OA
ENDBRANCH  38  46
ENDBRANCH  34  35
ENDBRANCH  31  34
ENDBRANCH  30  31
ENDBRANCH   1  30
TORSDOF 15
ENDMDL
MODEL 7
REMARK VINA RESULT:      -8.2      5.253     10.201
REMARK  15 active torsions:
REMARK  status: ('A' for Active; 'I' for Inactive)
REMARK    1  A    between atoms: PA_1  and  O5_4 
REMARK    2  A    between atoms: O3A_8  and  PA_1 
REMARK    3  A    between atoms: O5_4  and  C5_23 
REMARK    4  A    between atoms: PB_5  and  O3A_8 
REMARK    5  A    between atoms: O3_38  and  PB_5 
REMARK    6  A    between atoms: O3_30  and  PG_9 
REMARK    7  A    between atoms: C1_26  and  N9A_13 
REMARK    8  A    between atoms: C5_23  and  C4_24 
REMARK    9  A    between atoms: C2_27  and  O2_28 
REMARK   10  A    between atoms: C3_29  and  O3_30 
REMARK   11  A    between atoms: C5_32  and  O5_31 
REMARK   12  A    between atoms: O5_31  and  PD_39 
REMARK   13  A    between atoms: C4_33  and  C5_32 
REMARK   14  A    between atoms: C1_35  and  N1T_43 
REMARK   15  A    between atoms: C3_37  and  O3_38 
ROOT
ATOM      1  PA  PAX d         -28.849 -29.527  19.289  0.00  0.00     0.417 P 
ATOM      2  O1A PAX d         -29.792 -28.971  20.360  0.00  0.00    -0.624 OA
ATOM      3  O2A PAX d         -27.350 -29.318  19.531  0.00  0.00    -0.624 OA
ENDROOT
BRANCH   1   4
ATOM      4  O5  PAX d         -29.099 -31.084  19.058  0.00  0.00    -0.287 OA
BRANCH   4   5
ATOM      5  C5  PAX d         -28.076 -32.027  19.288  0.00  0.00     0.216 C 
BRANCH   5   6
ATOM      6  C4  PAX d         -27.421 -32.380  17.989  0.00  0.00     0.180 C 
ATOM      7  O4  PAX d         -25.962 -32.370  18.136  0.00  0.00    -0.353 OA
ATOM      8  C1  PAX d         -25.432 -33.366  17.290  0.00  0.00     0.262 C 
ATOM      9  C2  PAX d         -26.443 -34.515  17.472  0.00  0.00     0.199 C 
ATOM     10  C3  PAX d         -27.787 -33.773  17.473  0.00  0.00     0.199 C 
BRANCH   8  11
ATOM     11  N9A PAX d         -23.985 -33.603  17.587  0.00  0.00    -0.294 N 
ATOM     12  C4A PAX d         -22.870 -33.606  16.756  0.00  0.00     0.167 A 
ATOM     13  N3A PAX d         -22.827 -33.382  15.405  0.00  0.00    -0.222 NA
ATOM     14  C5A PAX d         -21.771 -33.886  17.598  0.00  0.00     0.149 A 
ATOM     15  C2A PAX d         -21.551 -33.462  14.913  0.00  0.00     0.237 A 
ATOM     16  N1A PAX d         -20.398 -33.725  15.605  0.00  0.00    -0.222 NA
ATOM     17  C6A PAX d         -20.476 -33.943  16.964  0.00  0.00     0.155 A 
ATOM     18  N6A PAX d         -19.347 -34.194  17.622  0.00  0.00    -0.382 N 
ATOM     19  H2  PAX d         -19.370 -34.361  18.638  0.00  0.00     0.157 HD
ATOM     20  H3  PAX d         -18.450 -34.219  17.116  0.00  0.00     0.157 HD
ATOM     21  N7A PAX d         -22.188 -34.054  18.909  0.00  0.00    -0.236 NA
ATOM     22  C8A PAX d         -23.492 -33.878  18.853  0.00  0.00     0.214 A 
ENDBRANCH   8  11
BRANCH   9  23
ATOM     23  O2  PAX d         -26.327 -35.537  16.490  0.00  0.00    -0.388 OA
ATOM     24  H10 PAX d         -25.421 -35.819  16.433  0.00  0.00     0.210 HD
ENDBRANCH   9  23
BRANCH  10  25
ATOM     25  O3  PAX d         -28.298 -33.610  16.147  0.00  0.00    -0.272 OA
BRANCH  25  26
ATOM     26  PG  PAX d         -29.504 -34.542  15.552  0.00  0.00     0.422 P 
ATOM     27  O1G PAX d         -28.836 -35.664  14.760  0.00  0.00    -0.617 OA
ATOM     28  O2G PAX d         -30.272 -35.033  16.771  0.00  0.00    -0.617 OA
ATOM     29  O3G PAX d         -30.393 -33.673  14.643  0.00  0.00    -0.617 OA
ENDBRANCH  25  26
ENDBRANCH  10  25
ENDBRANCH   5   6
ENDBRANCH   4   5
ENDBRANCH   1   4
BRANCH   1  30
ATOM     30  O3A PAX d         -29.235 -28.943  17.867  0.00  0.00    -0.180 OA
BRANCH  30  31
ATOM     31  PB  PAX d         -30.367 -29.276  16.818  0.00  0.00     0.418 P 
ATOM     32  O1B PAX d         -30.897 -28.012  16.272  0.00  0.00    -0.624 OA
ATOM     33  O2B PAX d         -29.833 -30.289  15.881  0.00  0.00    -0.624 OA
BRANCH  31  34
ATOM     34  O3  PAX d         -31.462 -30.081  17.713  0.00  0.00    -0.281 OA
BRANCH  34  35
ATOM     35  C3  PAX d         -32.190 -31.191  17.183  0.00  0.00     0.169 C 
ATOM     36  C4  PAX d         -33.692 -30.934  17.346  0.00  0.00     0.178 C 
ATOM     37  O4  PAX d         -34.147 -31.801  18.422  0.00  0.00    -0.356 OA
ATOM     38  C1  PAX d         -33.028 -32.369  19.072  0.00  0.00     0.235 C 
ATOM     39  C2  PAX d         -31.926 -32.430  18.022  0.00  0.00     0.089 C 
BRANCH  36  40
ATOM     40  C5  PAX d         -34.495 -31.199  16.082  0.00  0.00     0.217 C 
BRANCH  40  41
ATOM     41  O5  PAX d         -35.303 -32.393  16.226  0.00  0.00    -0.280 OA
BRANCH  41  42
ATOM     42  PD  PAX d         -35.072 -33.728  15.290  0.00  0.00     0.422 P 
ATOM     43  O1D PAX d         -35.541 -33.318  13.881  0.00  0.00    -0.617 OA
ATOM     44  O2D PAX d         -35.940 -34.849  15.906  0.00  0.00    -0.617 OA
ATOM     45  O3D PAX d         -33.565 -34.035  15.346  0.00  0.00    -0.617 OA
ENDBRANCH  41  42
ENDBRANCH  40  41
ENDBRANCH  36  40
BRANCH  38  46
ATOM     46  N1T PAX d         -33.388 -33.725  19.609  0.00  0.00    -0.282 N 
ATOM     47  C6T PAX d         -33.533 -34.852  18.760  0.00  0.00     0.110 A 
ATOM     48  C5T PAX d         -33.853 -36.084  19.219  0.00  0.00     0.022 A 
ATOM     49  C4T PAX d         -34.060 -36.274  20.659  0.00  0.00     0.256 A 
ATOM     50  CM5 PAX d         -33.983 -37.227  18.263  0.00  0.00     0.056 C 
ATOM     51  N3T PAX d         -33.906 -35.118  21.449  0.00  0.00    -0.275 N 
ATOM     52  O4T PAX d         -34.340 -37.337  21.218  0.00  0.00    -0.267 OA
ATOM     53  C2T PAX d         -33.579 -33.837  21.007  0.00  0.00     0.331 A 
ATOM     54  H20 PAX d         -34.047 -35.228  22.433  0.00  0.00     0.173 HD
ATOM     55  O2T PAX d         -33.467 -32.905  21.769  0.00  0.00    -0.246 OA
ENDBRANCH  38  46
ENDBRANCH  34  35
ENDBRANCH  31  34
ENDBRANCH  30  31
ENDBRANCH   1  30
TORSDOF 15
ENDMDL
MODEL 8
REMARK VINA RESULT:      -8.1      2.686     10.041
REMARK  15 active torsions:
REMARK  status: ('A' for Active; 'I' for Inactive)
REMARK    1  A    between atoms: PA_1  and  O5_4 
REMARK    2  A    between atoms: O3A_8  and  PA_1 
REMARK    3  A    between atoms: O5_4  and  C5_23 
REMARK    4  A    between atoms: PB_5  and  O3A_8 
REMARK    5  A    between atoms: O3_38  and  PB_5 
REMARK    6  A    between atoms: O3_30  and  PG_9 
REMARK    7  A    between atoms: C1_26  and  N9A_13 
REMARK    8  A    between atoms: C5_23  and  C4_24 
REMARK    9  A    between atoms: C2_27  and  O2_28 
REMARK   10  A    between atoms: C3_29  and  O3_30 
REMARK   11  A    between atoms: C5_32  and  O5_31 
REMARK   12  A    between atoms: O5_31  and  PD_39 
REMARK   13  A    between atoms: C4_33  and  C5_32 
REMARK   14  A    between atoms: C1_35  and  N1T_43 
REMARK   15  A    between atoms: C3_37  and  O3_38 
ROOT
ATOM      1  PA  PAX d         -30.117 -31.560  18.639  0.00  0.00     0.417 P 
ATOM      2  O1A PAX d         -31.140 -32.500  19.284  0.00  0.00    -0.624 OA
ATOM      3  O2A PAX d         -29.867 -30.231  19.360  0.00  0.00    -0.624 OA
ENDROOT
BRANCH   1   4
ATOM      4  O5  PAX d         -28.711 -32.288  18.446  0.00  0.00    -0.287 OA
BRANCH   4   5
ATOM      5  C5  PAX d         -27.575 -31.573  18.015  0.00  0.00     0.216 C 
BRANCH   5   6
ATOM      6  C4  PAX d         -26.897 -32.331  16.917  0.00  0.00     0.180 C 
ATOM      7  O4  PAX d         -25.457 -32.427  17.179  0.00  0.00    -0.353 OA
ATOM      8  C1  PAX d         -25.003 -33.664  16.677  0.00  0.00     0.262 C 
ATOM      9  C2  PAX d         -26.152 -34.613  17.071  0.00  0.00     0.199 C 
ATOM     10  C3  PAX d         -27.397 -33.768  16.760  0.00  0.00     0.199 C 
BRANCH   8  11
ATOM     11  N9A PAX d         -23.613 -33.953  17.148  0.00  0.00    -0.294 N 
ATOM     12  C4A PAX d         -22.402 -33.963  16.467  0.00  0.00     0.167 A 
ATOM     13  N3A PAX d         -22.179 -33.699  15.141  0.00  0.00    -0.222 NA
ATOM     14  C5A PAX d         -21.427 -34.303  17.432  0.00  0.00     0.149 A 
ATOM     15  C2A PAX d         -20.853 -33.801  14.813  0.00  0.00     0.237 A 
ATOM     16  N1A PAX d         -19.805 -34.120  15.638  0.00  0.00    -0.222 NA
ATOM     17  C6A PAX d         -20.063 -34.379  16.967  0.00  0.00     0.155 A 
ATOM     18  N6A PAX d         -19.036 -34.684  17.755  0.00  0.00    -0.382 N 
ATOM     19  H2  PAX d         -19.193 -34.883  18.753  0.00  0.00     0.157 HD
ATOM     20  H3  PAX d         -18.082 -34.720  17.367  0.00  0.00     0.157 HD
ATOM     21  N7A PAX d         -22.013 -34.500  18.672  0.00  0.00    -0.236 NA
ATOM     22  C8A PAX d         -23.295 -34.283  18.455  0.00  0.00     0.214 A 
ENDBRANCH   8  11
BRANCH   9  23
ATOM     23  O2  PAX d         -26.105 -35.870  16.409  0.00  0.00    -0.388 OA
ATOM     24  H10 PAX d         -25.818 -36.539  17.021  0.00  0.00     0.210 HD
ENDBRANCH   9  23
BRANCH  10  25
ATOM     25  O3  PAX d         -27.811 -33.924  15.400  0.00  0.00    -0.272 OA
BRANCH  25  26
ATOM     26  PG  PAX d         -29.166 -34.741  14.985  0.00  0.00     0.422 P 
ATOM     27  O1G PAX d         -29.695 -34.089  13.710  0.00  0.00    -0.617 OA
ATOM     28  O2G PAX d         -28.722 -36.185  14.790  0.00  0.00    -0.617 OA
ATOM     29  O3G PAX d         -30.183 -34.621  16.135  0.00  0.00    -0.617 OA
ENDBRANCH  25  26
ENDBRANCH  10  25
ENDBRANCH   5   6
ENDBRANCH   4   5
ENDBRANCH   1   4
BRANCH   1  30
ATOM     30  O3A PAX d         -30.517 -31.269  17.133  0.00  0.00    -0.180 OA
BRANCH  30  31
ATOM     31  PB  PAX d         -31.891 -31.026  16.394  0.00  0.00     0.418 P 
ATOM     32  O1B PAX d         -32.205 -32.210  15.573  0.00  0.00    -0.624 OA
ATOM     33  O2B PAX d         -32.875 -30.577  17.404  0.00  0.00    -0.624 OA
BRANCH  31  34
ATOM     34  O3  PAX d         -31.589 -29.702  15.498  0.00  0.00    -0.281 OA
BRANCH  34  35
ATOM     35  C3  PAX d         -31.394 -28.421  16.099  0.00  0.00     0.169 C 
ATOM     36  C4  PAX d         -32.330 -27.403  15.437  0.00  0.00     0.178 C 
ATOM     37  O4  PAX d         -31.498 -26.567  14.586  0.00  0.00    -0.356 OA
ATOM     38  C1  PAX d         -30.206 -27.132  14.490  0.00  0.00     0.235 C 
ATOM     39  C2  PAX d         -29.998 -27.909  15.784  0.00  0.00     0.089 C 
BRANCH  36  40
ATOM     40  C5  PAX d         -33.096 -26.545  16.431  0.00  0.00     0.217 C 
BRANCH  40  41
ATOM     41  O5  PAX d         -32.186 -25.831  17.304  0.00  0.00    -0.280 OA
BRANCH  41  42
ATOM     42  PD  PAX d         -32.286 -25.926  18.944  0.00  0.00     0.422 P 
ATOM     43  O1D PAX d         -31.607 -24.644  19.464  0.00  0.00    -0.617 OA
ATOM     44  O2D PAX d         -31.531 -27.211  19.355  0.00  0.00    -0.617 OA
ATOM     45  O3D PAX d         -33.787 -25.977  19.280  0.00  0.00    -0.617 OA
ENDBRANCH  41  42
ENDBRANCH  40  41
ENDBRANCH  36  40
BRANCH  38  46
ATOM     46  N1T PAX d         -29.189 -26.043  14.304  0.00  0.00    -0.282 N 
ATOM     47  C6T PAX d         -29.280 -24.806  14.992  0.00  0.00     0.110 A 
ATOM     48  C5T PAX d         -28.376 -23.810  14.843  0.00  0.00     0.022 A 
ATOM     49  C4T PAX d         -27.243 -24.010  13.932  0.00  0.00     0.256 A 
ATOM     50  CM5 PAX d         -28.535 -22.535  15.608  0.00  0.00     0.056 C 
ATOM     51  N3T PAX d         -27.210 -25.256  13.275  0.00  0.00    -0.275 N 
ATOM     52  O4T PAX d         -26.339 -23.201  13.710  0.00  0.00    -0.267 OA
ATOM     53  C2T PAX d         -28.125 -26.298  13.405  0.00  0.00     0.331 A 
ATOM     54  H20 PAX d         -26.447 -25.408  12.646  0.00  0.00     0.173 HD
ATOM     55  O2T PAX d         -28.006 -27.336  12.795  0.00  0.00    -0.246 OA
ENDBRANCH  38  46
ENDBRANCH  34  35
ENDBRANCH  31  34
ENDBRANCH  30  31
ENDBRANCH   1  30
TORSDOF 15
ENDMDL
MODEL 9
REMARK VINA RESULT:      -8.1      3.018      4.504
REMARK  15 active torsions:
REMARK  status: ('A' for Active; 'I' for Inactive)
REMARK    1  A    between atoms: PA_1  and  O5_4 
REMARK    2  A    between atoms: O3A_8  and  PA_1 
REMARK    3  A    between atoms: O5_4  and  C5_23 
REMARK    4  A    between atoms: PB_5  and  O3A_8 
REMARK    5  A    between atoms: O3_38  and  PB_5 
REMARK    6  A    between atoms: O3_30  and  PG_9 
REMARK    7  A    between atoms: C1_26  and  N9A_13 
REMARK    8  A    between atoms: C5_23  and  C4_24 
REMARK    9  A    between atoms: C2_27  and  O2_28 
REMARK   10  A    between atoms: C3_29  and  O3_30 
REMARK   11  A    between atoms: C5_32  and  O5_31 
REMARK   12  A    between atoms: O5_31  and  PD_39 
REMARK   13  A    between atoms: C4_33  and  C5_32 
REMARK   14  A    between atoms: C1_35  and  N1T_43 
REMARK   15  A    between atoms: C3_37  and  O3_38 
ROOT
ATOM      1  PA  PAX d         -30.293 -29.197  17.001  0.00  0.00     0.417 P 
ATOM      2  O1A PAX d         -31.255 -29.063  18.185  0.00  0.00    -0.624 OA
ATOM      3  O2A PAX d         -30.906 -29.666  15.677  0.00  0.00    -0.624 OA
ENDROOT
BRANCH   1   4
ATOM      4  O5  PAX d         -29.524 -27.827  16.731  0.00  0.00    -0.287 OA
BRANCH   4   5
ATOM      5  C5  PAX d         -30.193 -26.712  16.184  0.00  0.00     0.216 C 
BRANCH   5   6
ATOM      6  C4  PAX d         -29.347 -26.098  15.113  0.00  0.00     0.180 C 
ATOM      7  O4  PAX d         -28.778 -27.140  14.254  0.00  0.00    -0.353 OA
ATOM      8  C1  PAX d         -28.686 -26.625  12.944  0.00  0.00     0.262 C 
ATOM      9  C2  PAX d         -30.005 -25.838  12.814  0.00  0.00     0.199 C 
ATOM     10  C3  PAX d         -30.117 -25.155  14.186  0.00  0.00     0.199 C 
BRANCH   8  11
ATOM     11  N9A PAX d         -28.376 -27.711  11.964  0.00  0.00    -0.294 N 
ATOM     12  C4A PAX d         -27.162 -28.213  11.510  0.00  0.00     0.167 A 
ATOM     13  N3A PAX d         -25.900 -27.816  11.869  0.00  0.00    -0.222 NA
ATOM     14  C5A PAX d         -27.492 -29.235  10.593  0.00  0.00     0.149 A 
ATOM     15  C2A PAX d         -24.932 -28.536  11.221  0.00  0.00     0.237 A 
ATOM     16  N1A PAX d         -25.104 -29.548  10.312  0.00  0.00    -0.222 NA
ATOM     17  C6A PAX d         -26.386 -29.924   9.974  0.00  0.00     0.155 A 
ATOM     18  N6A PAX d         -26.536 -30.910   9.093  0.00  0.00    -0.382 N 
ATOM     19  H2  PAX d         -27.480 -31.216   8.818  0.00  0.00     0.157 HD
ATOM     20  H3  PAX d         -25.708 -31.367   8.685  0.00  0.00     0.157 HD
ATOM     21  N7A PAX d         -28.868 -29.364  10.477  0.00  0.00    -0.236 NA
ATOM     22  C8A PAX d         -29.342 -28.450  11.300  0.00  0.00     0.214 A 
ENDBRANCH   8  11
BRANCH   9  23
ATOM     23  O2  PAX d         -30.033 -24.951  11.704  0.00  0.00    -0.388 OA
ATOM     24  H10 PAX d         -30.761 -25.179  11.136  0.00  0.00     0.210 HD
ENDBRANCH   9  23
BRANCH  10  25
ATOM     25  O3  PAX d         -29.435 -23.898  14.204  0.00  0.00    -0.272 OA
BRANCH  25  26
ATOM     26  PG  PAX d         -30.208 -22.487  14.499  0.00  0.00     0.422 P 
ATOM     27  O1G PAX d         -31.065 -22.194  13.270  0.00  0.00    -0.617 OA
ATOM     28  O2G PAX d         -31.021 -22.730  15.763  0.00  0.00    -0.617 OA
ATOM     29  O3G PAX d         -29.153 -21.386  14.716  0.00  0.00    -0.617 OA
ENDBRANCH  25  26
ENDBRANCH  10  25
ENDBRANCH   5   6
ENDBRANCH   4   5
ENDBRANCH   1   4
BRANCH   1  30
ATOM     30  O3A PAX d         -29.086 -30.151  17.384  0.00  0.00    -0.180 OA
BRANCH  30  31
ATOM     31  PB  PAX d         -28.405 -30.558  18.749  0.00  0.00     0.418 P 
ATOM     32  O1B PAX d         -27.480 -29.485  19.158  0.00  0.00    -0.624 OA
ATOM     33  O2B PAX d         -29.475 -30.972  19.684  0.00  0.00    -0.624 OA
BRANCH  31  34
ATOM     34  O3  PAX d         -27.635 -31.940  18.370  0.00  0.00    -0.281 OA
BRANCH  34  35
ATOM     35  C3  PAX d         -26.884 -32.071  17.160  0.00  0.00     0.169 C 
ATOM     36  C4  PAX d         -27.109 -33.469  16.574  0.00  0.00     0.178 C 
ATOM     37  O4  PAX d         -25.888 -34.221  16.815  0.00  0.00    -0.356 OA
ATOM     38  C1  PAX d         -25.052 -33.493  17.692  0.00  0.00     0.235 C 
ATOM     39  C2  PAX d         -25.396 -32.026  17.468  0.00  0.00     0.089 C 
BRANCH  36  40
ATOM     40  C5  PAX d         -27.437 -33.460  15.089  0.00  0.00     0.217 C 
BRANCH  40  41
ATOM     41  O5  PAX d         -26.231 -33.331  14.296  0.00  0.00    -0.280 OA
BRANCH  41  42
ATOM     42  PD  PAX d         -25.941 -32.019  13.346  0.00  0.00     0.422 P 
ATOM     43  O1D PAX d         -27.174 -31.112  13.523  0.00  0.00    -0.617 OA
ATOM     44  O2D PAX d         -25.791 -32.549  11.902  0.00  0.00    -0.617 OA
ATOM     45  O3D PAX d         -24.652 -31.375  13.887  0.00  0.00    -0.617 OA
ENDBRANCH  41  42
ENDBRANCH  40  41
ENDBRANCH  36  40
BRANCH  38  46
ATOM     46  N1T PAX d         -23.613 -33.798  17.392  0.00  0.00    -0.282 N 
ATOM     47  C6T PAX d         -23.136 -33.933  16.063  0.00  0.00     0.110 A 
ATOM     48  C5T PAX d         -21.844 -34.205  15.767  0.00  0.00     0.022 A 
ATOM     49  C4T PAX d         -20.883 -34.368  16.864  0.00  0.00     0.256 A 
ATOM     50  CM5 PAX d         -21.414 -34.327  14.340  0.00  0.00     0.056 C 
ATOM     51  N3T PAX d         -21.417 -34.228  18.160  0.00  0.00    -0.275 N 
ATOM     52  O4T PAX d         -19.678 -34.602  16.745  0.00  0.00    -0.267 OA
ATOM     53  C2T PAX d         -22.740 -33.950  18.497  0.00  0.00     0.331 A 
ATOM     54  H20 PAX d         -20.777 -34.340  18.920  0.00  0.00     0.173 HD
ATOM     55  O2T PAX d         -23.101 -33.846  19.647  0.00  0.00    -0.246 OA
ENDBRANCH  38  46
ENDBRANCH  34  35
ENDBRANCH  31  34
ENDBRANCH  30  31
ENDBRANCH   1  30
TORSDOF 15
ENDMDL
MODEL 10
REMARK VINA RESULT:      -8.1      5.088     10.062
REMARK  15 active torsions:
REMARK  status: ('A' for Active; 'I' for Inactive)
REMARK    1  A    between atoms: PA_1  and  O5_4 
REMARK    2  A    between atoms: O3A_8  and  PA_1 
REMARK    3  A    between atoms: O5_4  and  C5_23 
REMARK    4  A    between atoms: PB_5  and  O3A_8 
REMARK    5  A    between atoms: O3_38  and  PB_5 
REMARK    6  A    between atoms: O3_30  and  PG_9 
REMARK    7  A    between atoms: C1_26  and  N9A_13 
REMARK    8  A    between atoms: C5_23  and  C4_24 
REMARK    9  A    between atoms: C2_27  and  O2_28 
REMARK   10  A    between atoms: C3_29  and  O3_30 
REMARK   11  A    between atoms: C5_32  and  O5_31 
REMARK   12  A    between atoms: O5_31  and  PD_39 
REMARK   13  A    between atoms: C4_33  and  C5_32 
REMARK   14  A    between atoms: C1_35  and  N1T_43 
REMARK   15  A    between atoms: C3_37  and  O3_38 
ROOT
ATOM      1  PA  PAX d         -28.741 -29.677  19.351  0.00  0.00     0.417 P 
ATOM      2  O1A PAX d         -29.574 -29.075  20.486  0.00  0.00    -0.624 OA
ATOM      3  O2A PAX d         -27.221 -29.523  19.470  0.00  0.00    -0.624 OA
ENDROOT
BRANCH   1   4
ATOM      4  O5  PAX d         -29.067 -31.226  19.160  0.00  0.00    -0.287 OA
BRANCH   4   5
ATOM      5  C5  PAX d         -28.074 -32.208  19.357  0.00  0.00     0.216 C 
BRANCH   5   6
ATOM      6  C4  PAX d         -27.438 -32.545  18.045  0.00  0.00     0.180 C 
ATOM      7  O4  PAX d         -25.978 -32.545  18.172  0.00  0.00    -0.353 OA
ATOM      8  C1  PAX d         -25.463 -33.532  17.306  0.00  0.00     0.262 C 
ATOM      9  C2  PAX d         -26.478 -34.678  17.486  0.00  0.00     0.199 C 
ATOM     10  C3  PAX d         -27.818 -33.929  17.515  0.00  0.00     0.199 C 
BRANCH   8  11
ATOM     11  N9A PAX d         -24.014 -33.779  17.580  0.00  0.00    -0.294 N 
ATOM     12  C4A PAX d         -22.944 -33.988  16.718  0.00  0.00     0.167 A 
ATOM     13  N3A PAX d         -22.960 -34.018  15.349  0.00  0.00    -0.222 NA
ATOM     14  C5A PAX d         -21.815 -34.162  17.550  0.00  0.00     0.149 A 
ATOM     15  C2A PAX d         -21.715 -34.248  14.826  0.00  0.00     0.237 A 
ATOM     16  N1A PAX d         -20.539 -34.435  15.506  0.00  0.00    -0.222 NA
ATOM     17  C6A PAX d         -20.557 -34.397  16.884  0.00  0.00     0.155 A 
ATOM     18  N6A PAX d         -19.408 -34.577  17.528  0.00  0.00    -0.382 N 
ATOM     19  H2  PAX d         -19.386 -34.555  18.558  0.00  0.00     0.157 HD
ATOM     20  H3  PAX d         -18.539 -34.738  16.998  0.00  0.00     0.157 HD
ATOM     21  N7A PAX d         -22.172 -34.068  18.886  0.00  0.00    -0.236 NA
ATOM     22  C8A PAX d         -23.470 -33.842  18.853  0.00  0.00     0.214 A 
ENDBRANCH   8  11
BRANCH   9  23
ATOM     23  O2  PAX d         -26.381 -35.687  16.489  0.00  0.00    -0.388 OA
ATOM     24  H10 PAX d         -25.495 -36.032  16.474  0.00  0.00     0.210 HD
ENDBRANCH   9  23
BRANCH  10  25
ATOM     25  O3  PAX d         -28.346 -33.745  16.198  0.00  0.00    -0.272 OA
BRANCH  25  26
ATOM     26  PG  PAX d         -29.610 -34.616  15.631  0.00  0.00     0.422 P 
ATOM     27  O1G PAX d         -30.281 -33.762  14.558  0.00  0.00    -0.617 OA
ATOM     28  O2G PAX d         -29.001 -35.903  15.090  0.00  0.00    -0.617 OA
ATOM     29  O3G PAX d         -30.573 -34.901  16.799  0.00  0.00    -0.617 OA
ENDBRANCH  25  26
ENDBRANCH  10  25
ENDBRANCH   5   6
ENDBRANCH   4   5
ENDBRANCH   1   4
BRANCH   1  30
ATOM     30  O3A PAX d         -29.217 -29.092  17.956  0.00  0.00    -0.180 OA
BRANCH  30  31
ATOM     31  PB  PAX d         -30.521 -28.347  17.470  0.00  0.00     0.418 P 
ATOM     32  O1B PAX d         -30.646 -27.075  18.208  0.00  0.00    -0.624 OA
ATOM     33  O2B PAX d         -30.499 -28.314  15.991  0.00  0.00    -0.624 OA
BRANCH  31  34
ATOM     34  O3  PAX d         -31.700 -29.405  17.840  0.00  0.00    -0.281 OA
BRANCH  34  35
ATOM     35  C3  PAX d         -32.389 -30.141  16.826  0.00  0.00     0.169 C 
ATOM     36  C4  PAX d         -33.900 -30.043  17.069  0.00  0.00     0.178 C 
ATOM     37  O4  PAX d         -34.322 -31.337  17.581  0.00  0.00    -0.356 OA
ATOM     38  C1  PAX d         -33.183 -32.114  17.892  0.00  0.00     0.235 C 
ATOM     39  C2  PAX d         -32.081 -31.623  16.962  0.00  0.00     0.089 C 
BRANCH  36  40
ATOM     40  C5  PAX d         -34.695 -29.685  15.823  0.00  0.00     0.217 C 
BRANCH  40  41
ATOM     41  O5  PAX d         -33.937 -29.988  14.625  0.00  0.00    -0.280 OA
BRANCH  41  42
ATOM     42  PD  PAX d         -34.339 -31.231  13.623  0.00  0.00     0.422 P 
ATOM     43  O1D PAX d         -34.646 -30.570  12.265  0.00  0.00    -0.617 OA
ATOM     44  O2D PAX d         -35.575 -31.916  14.248  0.00  0.00    -0.617 OA
ATOM     45  O3D PAX d         -33.106 -32.151  13.566  0.00  0.00    -0.617 OA
ENDBRANCH  41  42
ENDBRANCH  40  41
ENDBRANCH  36  40
BRANCH  38  46
ATOM     46  N1T PAX d         -33.493 -33.570  17.696  0.00  0.00    -0.282 N 
ATOM     47  C6T PAX d         -33.853 -34.096  16.429  0.00  0.00     0.110 A 
ATOM     48  C5T PAX d         -34.135 -35.404  16.227  0.00  0.00     0.022 A 
ATOM     49  C4T PAX d         -34.066 -36.330  17.363  0.00  0.00     0.256 A 
ATOM     50  CM5 PAX d         -34.502 -35.887  14.860  0.00  0.00     0.056 C 
ATOM     51  N3T PAX d         -33.708 -35.748  18.595  0.00  0.00    -0.275 N 
ATOM     52  O4T PAX d         -34.281 -37.544  17.325  0.00  0.00    -0.267 OA
ATOM     53  C2T PAX d         -33.414 -34.407  18.836  0.00  0.00     0.331 A 
ATOM     54  H20 PAX d         -33.660 -36.363  19.382  0.00  0.00     0.173 HD
ATOM     55  O2T PAX d         -33.113 -34.004  19.936  0.00  0.00    -0.246 OA
ENDBRANCH  38  46
ENDBRANCH  34  35
ENDBRANCH  31  34
ENDBRANCH  30  31
ENDBRANCH   1  30
TORSDOF 15
ENDMDL
