MODEL 1
REMARK VINA RESULT:      -7.9      0.000      0.000
REMARK  18 active torsions:
REMARK  status: ('A' for Active; 'I' for Inactive)
REMARK    1  A    between atoms: NA1_2  and  OA7_3 
REMARK    2  A    between atoms: CA2_4  and  OA2_5 
REMARK    3  A    between atoms: CA3_6  and  OA3_7 
REMARK    4  A    between atoms: CA4_8  and  OA4_9 
REMARK    5  A    between atoms: OA4_9  and  CB1_14 
REMARK    6  A    between atoms: CA5_10  and  CA6_12 
REMARK    7  A    between atoms: CA6_12  and  OA6_13 
REMARK    8  A    between atoms: CB2_15  and  OB2_20 
REMARK    9  A    between atoms: CB3_16  and  OB3_21 
REMARK   10  A    between atoms: CB4_17  and  OB4_22 
REMARK   11  A    between atoms: CB5_18  and  CB6_19 
REMARK   12  A    between atoms: CB6_19  and  OB6_24 
REMARK   13  A    between atoms: OB4_22  and  CD1_25 
REMARK   14  A    between atoms: CD2_26  and  OD2_31 
REMARK   15  A    between atoms: CD3_27  and  OD3_32 
REMARK   16  A    between atoms: CD4_28  and  OD4_33 
REMARK   17  A    between atoms: CD5_29  and  CD6_30 
REMARK   18  A    between atoms: CD6_30  and  OD6_35 
ROOT
ATOM      1  CB1 MOL d          13.106  17.303  40.163  0.00  0.00     0.292 C 
ATOM      2  CB2 MOL d          12.991  17.718  38.619  0.00  0.00     0.204 C 
ATOM      3  CB3 MOL d          13.187  16.499  37.645  0.00  0.00     0.183 C 
ATOM      4  CB4 MOL d          14.603  15.902  37.934  0.00  0.00     0.187 C 
ATOM      5  CB5 MOL d          14.609  15.400  39.524  0.00  0.00     0.180 C 
ATOM      6  OB5 MOL d          14.379  16.577  40.394  0.00  0.00    -0.348 OA
ENDROOT
BRANCH   1   7
ATOM      7  OA4 MOL d          11.966  16.523  40.493  0.00  0.00    -0.348 OA
BRANCH   7   8
ATOM      8  CA4 MOL d          11.241  17.035  41.478  0.00  0.00     0.181 C 
ATOM      9  CA3 MOL d           9.779  17.293  40.963  0.00  0.00     0.185 C 
ATOM     10  CA2 MOL d           8.786  17.391  42.174  0.00  0.00     0.220 C 
ATOM     11  CA1 MOL d           8.927  16.117  43.029  0.00  0.00     0.159 C 
ATOM     12  NA1 MOL d           7.846  15.630  43.619  0.00  0.00    -0.120 NA
ATOM     13  NA5 MOL d          10.194  15.479  43.208  0.00  0.00    -0.365 N 
ATOM     14  CA5 MOL d          11.399  15.963  42.509  0.00  0.00     0.138 C 
ATOM     15  H8  MOL d          10.266  14.667  43.837  0.00  0.00     0.161 HD
BRANCH   9  16
ATOM     16  OA3 MOL d           9.685  18.386  40.216  0.00  0.00    -0.390 OA
ATOM     17  H5  MOL d          10.369  18.997  40.464  0.00  0.00     0.210 HD
ENDBRANCH   9  16
BRANCH  10  18
ATOM     18  OA2 MOL d           7.510  17.627  41.833  0.00  0.00    -0.385 OA
ATOM     19  H3  MOL d           7.247  18.478  42.163  0.00  0.00     0.210 HD
ENDBRANCH  10  18
BRANCH  12  20
ATOM     20  OA7 MOL d           7.988  14.533  44.346  0.00  0.00    -0.265 OA
ATOM     21  H1  MOL d           8.228  13.809  43.780  0.00  0.00     0.247 HD
ENDBRANCH  12  20
BRANCH  14  22
ATOM     22  CA6 MOL d          12.351  16.490  43.631  0.00  0.00     0.191 C 
BRANCH  22  23
ATOM     23  OA6 MOL d          13.226  15.510  44.026  0.00  0.00    -0.399 OA
ATOM     24  H11 MOL d          13.871  15.368  43.343  0.00  0.00     0.209 HD
ENDBRANCH  22  23
ENDBRANCH  14  22
ENDBRANCH   7   8
ENDBRANCH   1   7
BRANCH   2  25
ATOM     25  OB2 MOL d          11.712  18.369  38.431  0.00  0.00    -0.388 OA
ATOM     26  H19 MOL d          11.525  18.435  37.502  0.00  0.00     0.210 HD
ENDBRANCH   2  25
BRANCH   3  27
ATOM     27  OB3 MOL d          13.091  16.979  36.281  0.00  0.00    -0.390 OA
ATOM     28  H20 MOL d          13.409  16.308  35.688  0.00  0.00     0.210 HD
ENDBRANCH   3  27
BRANCH   5  29
ATOM     29  CB6 MOL d          15.932  14.790  39.942  0.00  0.00     0.198 C 
BRANCH  29  30
ATOM     30  OB6 MOL d          16.993  15.510  39.414  0.00  0.00    -0.398 OA
ATOM     31  H21 MOL d          17.797  15.017  39.528  0.00  0.00     0.209 HD
ENDBRANCH  29  30
ENDBRANCH   5  29
BRANCH   4  32
ATOM     32  OB4 MOL d          14.816  14.800  37.067  0.00  0.00    -0.348 OA
BRANCH  32  33
ATOM     33  CD1 MOL d          16.063  14.952  36.310  0.00  0.00     0.292 C 
ATOM     34  CD2 MOL d          15.889  14.917  34.739  0.00  0.00     0.204 C 
ATOM     35  CD3 MOL d          15.313  13.491  34.335  0.00  0.00     0.183 C 
ATOM     36  CD4 MOL d          16.345  12.399  34.760  0.00  0.00     0.183 C 
ATOM     37  CD5 MOL d          16.551  12.478  36.382  0.00  0.00     0.179 C 
ATOM     38  OD5 MOL d          17.020  13.862  36.728  0.00  0.00    -0.348 OA
BRANCH  34  39
ATOM     39  OD2 MOL d          14.980  15.978  34.383  0.00  0.00    -0.388 OA
ATOM     40  H29 MOL d          14.316  16.064  35.057  0.00  0.00     0.210 HD
ENDBRANCH  34  39
BRANCH  35  41
ATOM     41  OD3 MOL d          15.153  13.431  32.940  0.00  0.00    -0.390 OA
ATOM     42  H30 MOL d          14.910  12.547  32.687  0.00  0.00     0.210 HD
ENDBRANCH  35  41
BRANCH  36  43
ATOM     43  OD4 MOL d          15.853  11.059  34.410  0.00  0.00    -0.385 OA
ATOM     44  CD7 MOL d          16.699  10.326  33.484  0.00  0.00     0.202 C 
ENDBRANCH  36  43
BRANCH  37  45
ATOM     45  CD6 MOL d          17.596  11.428  36.862  0.00  0.00     0.198 C 
BRANCH  45  46
ATOM     46  OD6 MOL d          18.927  11.794  36.481  0.00  0.00    -0.398 OA
ATOM     47  H31 MOL d          19.546  11.419  37.096  0.00  0.00     0.209 HD
ENDBRANCH  45  46
ENDBRANCH  37  45
ENDBRANCH  32  33
ENDBRANCH   4  32
TORSDOF 18
ENDMDL
MODEL 2
REMARK VINA RESULT:      -7.0      3.409      9.572
REMARK  18 active torsions:
REMARK  status: ('A' for Active; 'I' for Inactive)
REMARK    1  A    between atoms: NA1_2  and  OA7_3 
REMARK    2  A    between atoms: CA2_4  and  OA2_5 
REMARK    3  A    between atoms: CA3_6  and  OA3_7 
REMARK    4  A    between atoms: CA4_8  and  OA4_9 
REMARK    5  A    between atoms: OA4_9  and  CB1_14 
REMARK    6  A    between atoms: CA5_10  and  CA6_12 
REMARK    7  A    between atoms: CA6_12  and  OA6_13 
REMARK    8  A    between atoms: CB2_15  and  OB2_20 
REMARK    9  A    between atoms: CB3_16  and  OB3_21 
REMARK   10  A    between atoms: CB4_17  and  OB4_22 
REMARK   11  A    between atoms: CB5_18  and  CB6_19 
REMARK   12  A    between atoms: CB6_19  and  OB6_24 
REMARK   13  A    between atoms: OB4_22  and  CD1_25 
REMARK   14  A    between atoms: CD2_26  and  OD2_31 
REMARK   15  A    between atoms: CD3_27  and  OD3_32 
REMARK   16  A    between atoms: CD4_28  and  OD4_33 
REMARK   17  A    between atoms: CD5_29  and  CD6_30 
REMARK   18  A    between atoms: CD6_30  and  OD6_35 
ROOT
ATOM      1  CB1 MOL d          13.554  15.765  38.357  0.00  0.00     0.292 C 
ATOM      2  CB2 MOL d          13.481  15.672  39.955  0.00  0.00     0.204 C 
ATOM      3  CB3 MOL d          12.131  15.049  40.467  0.00  0.00     0.183 C 
ATOM      4  CB4 MOL d          10.973  15.953  39.930  0.00  0.00     0.187 C 
ATOM      5  CB5 MOL d          11.053  15.916  38.265  0.00  0.00     0.180 C 
ATOM      6  OB5 MOL d          12.357  16.474  37.839  0.00  0.00    -0.348 OA
ENDROOT
BRANCH   1   7
ATOM      7  OA4 MOL d          13.670  14.445  37.845  0.00  0.00    -0.348 OA
BRANCH   7   8
ATOM      8  CA4 MOL d          14.558  14.333  36.867  0.00  0.00     0.181 C 
ATOM      9  CA3 MOL d          15.854  13.639  37.425  0.00  0.00     0.185 C 
ATOM     10  CA2 MOL d          16.689  13.024  36.247  0.00  0.00     0.220 C 
ATOM     11  CA1 MOL d          15.779  12.080  35.440  0.00  0.00     0.159 C 
ATOM     12  NA1 MOL d          16.312  10.989  34.910  0.00  0.00    -0.120 NA
ATOM     13  NA5 MOL d          14.394  12.374  35.240  0.00  0.00    -0.365 N 
ATOM     14  CA5 MOL d          13.761  13.545  35.875  0.00  0.00     0.138 C 
ATOM     15  H8  MOL d          13.827  11.755  34.642  0.00  0.00     0.161 HD
BRANCH   9  16
ATOM     16  OA3 MOL d          16.614  14.468  38.129  0.00  0.00    -0.390 OA
ATOM     17  H5  MOL d          17.374  14.713  37.614  0.00  0.00     0.210 HD
ENDBRANCH   9  16
BRANCH  10  18
ATOM     18  OA2 MOL d          17.828  12.422  36.625  0.00  0.00    -0.385 OA
ATOM     19  H3  MOL d          17.621  11.649  37.136  0.00  0.00     0.210 HD
ENDBRANCH  10  18
BRANCH  12  20
ATOM     20  OA7 MOL d          15.512  10.190  34.223  0.00  0.00    -0.265 OA
ATOM     21  H1  MOL d          15.117  10.676  33.509  0.00  0.00     0.247 HD
ENDBRANCH  12  20
BRANCH  14  22
ATOM     22  CA6 MOL d          13.358  14.492  34.699  0.00  0.00     0.191 C 
BRANCH  22  23
ATOM     23  OA6 MOL d          12.307  15.296  35.061  0.00  0.00    -0.399 OA
ATOM     24  H11 MOL d          11.541  14.759  35.223  0.00  0.00     0.209 HD
ENDBRANCH  22  23
ENDBRANCH  14  22
ENDBRANCH   7   8
ENDBRANCH   1   7
BRANCH   2  25
ATOM     25  OB2 MOL d          14.635  14.925  40.407  0.00  0.00    -0.388 OA
ATOM     26  H19 MOL d          15.397  15.491  40.408  0.00  0.00     0.210 HD
ENDBRANCH   2  25
BRANCH   3  27
ATOM     27  OB3 MOL d          12.151  15.031  41.915  0.00  0.00    -0.390 OA
ATOM     28  H20 MOL d          11.573  14.345  42.230  0.00  0.00     0.210 HD
ENDBRANCH   3  27
BRANCH   5  29
ATOM     29  CB6 MOL d           9.975  16.754  37.608  0.00  0.00     0.198 C 
BRANCH  29  30
ATOM     30  OB6 MOL d           8.761  16.082  37.606  0.00  0.00    -0.398 OA
ATOM     31  H21 MOL d           8.221  16.405  38.318  0.00  0.00     0.209 HD
ENDBRANCH  29  30
ENDBRANCH   5  29
BRANCH   4  32
ATOM     32  OB4 MOL d           9.738  15.421  40.379  0.00  0.00    -0.348 OA
BRANCH  32  33
ATOM     33  CD1 MOL d           8.952  16.433  41.094  0.00  0.00     0.292 C 
ATOM     34  CD2 MOL d           8.553  16.032  42.571  0.00  0.00     0.204 C 
ATOM     35  CD3 MOL d           7.629  14.739  42.504  0.00  0.00     0.183 C 
ATOM     36  CD4 MOL d           6.336  15.093  41.702  0.00  0.00     0.183 C 
ATOM     37  CD5 MOL d           6.768  15.550  40.190  0.00  0.00     0.179 C 
ATOM     38  OD5 MOL d           7.699  16.722  40.303  0.00  0.00    -0.348 OA
BRANCH  34  39
ATOM     39  OD2 MOL d           9.775  15.776  43.292  0.00  0.00    -0.388 OA
ATOM     40  H29 MOL d           9.785  16.293  44.089  0.00  0.00     0.210 HD
ENDBRANCH  34  39
BRANCH  35  41
ATOM     41  OD3 MOL d           7.255  14.365  43.806  0.00  0.00    -0.390 OA
ATOM     42  H30 MOL d           8.031  14.132  44.302  0.00  0.00     0.210 HD
ENDBRANCH  35  41
BRANCH  36  43
ATOM     43  OD4 MOL d           5.451  13.924  41.608  0.00  0.00    -0.385 OA
ATOM     44  CD7 MOL d           4.190  14.063  42.316  0.00  0.00     0.202 C 
ENDBRANCH  36  43
BRANCH  37  45
ATOM     45  CD6 MOL d           5.517  15.945  39.350  0.00  0.00     0.198 C 
BRANCH  45  46
ATOM     46  OD6 MOL d           5.876  16.720  38.201  0.00  0.00    -0.398 OA
ATOM     47  H31 MOL d           5.101  17.148  37.855  0.00  0.00     0.209 HD
ENDBRANCH  45  46
ENDBRANCH  37  45
ENDBRANCH  32  33
ENDBRANCH   4  32
TORSDOF 18
ENDMDL
MODEL 3
REMARK VINA RESULT:      -7.0      3.046      9.436
REMARK  18 active torsions:
REMARK  status: ('A' for Active; 'I' for Inactive)
REMARK    1  A    between atoms: NA1_2  and  OA7_3 
REMARK    2  A    between atoms: CA2_4  and  OA2_5 
REMARK    3  A    between atoms: CA3_6  and  OA3_7 
REMARK    4  A    between atoms: CA4_8  and  OA4_9 
REMARK    5  A    between atoms: OA4_9  and  CB1_14 
REMARK    6  A    between atoms: CA5_10  and  CA6_12 
REMARK    7  A    between atoms: CA6_12  and  OA6_13 
REMARK    8  A    between atoms: CB2_15  and  OB2_20 
REMARK    9  A    between atoms: CB3_16  and  OB3_21 
REMARK   10  A    between atoms: CB4_17  and  OB4_22 
REMARK   11  A    between atoms: CB5_18  and  CB6_19 
REMARK   12  A    between atoms: CB6_19  and  OB6_24 
REMARK   13  A    between atoms: OB4_22  and  CD1_25 
REMARK   14  A    between atoms: CD2_26  and  OD2_31 
REMARK   15  A    between atoms: CD3_27  and  OD3_32 
REMARK   16  A    between atoms: CD4_28  and  OD4_33 
REMARK   17  A    between atoms: CD5_29  and  CD6_30 
REMARK   18  A    between atoms: CD6_30  and  OD6_35 
ROOT
ATOM      1  CB1 MOL d          14.468  15.600  37.028  0.00  0.00     0.292 C 
ATOM      2  CB2 MOL d          14.983  16.004  38.491  0.00  0.00     0.204 C 
ATOM      3  CB3 MOL d          13.998  15.550  39.630  0.00  0.00     0.183 C 
ATOM      4  CB4 MOL d          12.618  16.227  39.343  0.00  0.00     0.187 C 
ATOM      5  CB5 MOL d          12.101  15.678  37.856  0.00  0.00     0.180 C 
ATOM      6  OB5 MOL d          13.083  16.097  36.828  0.00  0.00    -0.348 OA
ENDROOT
BRANCH   1   7
ATOM      7  OA4 MOL d          14.563  14.188  36.904  0.00  0.00    -0.348 OA
BRANCH   7   8
ATOM      8  CA4 MOL d          15.106  13.793  35.761  0.00  0.00     0.181 C 
ATOM      9  CA3 MOL d          16.487  13.103  36.057  0.00  0.00     0.185 C 
ATOM     10  CA2 MOL d          16.902  12.183  34.855  0.00  0.00     0.220 C 
ATOM     11  CA1 MOL d          15.759  11.188  34.579  0.00  0.00     0.159 C 
ATOM     12  NA1 MOL d          16.069   9.966  34.174  0.00  0.00    -0.120 NA
ATOM     13  NA5 MOL d          14.390  11.570  34.732  0.00  0.00    -0.365 N 
ATOM     14  CA5 MOL d          14.019  12.903  35.245  0.00  0.00     0.138 C 
ATOM     15  H8  MOL d          13.647  10.903  34.478  0.00  0.00     0.161 HD
BRANCH   9  16
ATOM     16  OA3 MOL d          17.453  13.978  36.307  0.00  0.00    -0.390 OA
ATOM     17  H5  MOL d          18.041  14.020  35.561  0.00  0.00     0.210 HD
ENDBRANCH   9  16
BRANCH  10  18
ATOM     18  OA2 MOL d          18.082  11.561  35.010  0.00  0.00    -0.385 OA
ATOM     19  H3  MOL d          18.621  11.711  34.242  0.00  0.00     0.210 HD
ENDBRANCH  10  18
BRANCH  12  20
ATOM     20  OA7 MOL d          15.072   9.127  33.946  0.00  0.00    -0.265 OA
ATOM     21  H1  MOL d          15.230   8.315  34.414  0.00  0.00     0.247 HD
ENDBRANCH  12  20
BRANCH  14  22
ATOM     22  CA6 MOL d          13.307  13.627  34.058  0.00  0.00     0.191 C 
BRANCH  22  23
ATOM     23  OA6 MOL d          12.360  14.504  34.520  0.00  0.00    -0.399 OA
ATOM     24  H11 MOL d          12.636  14.852  35.360  0.00  0.00     0.209 HD
ENDBRANCH  22  23
ENDBRANCH  14  22
ENDBRANCH   7   8
ENDBRANCH   1   7
BRANCH   2  25
ATOM     25  OB2 MOL d          16.309  15.449  38.661  0.00  0.00    -0.388 OA
ATOM     26  H19 MOL d          16.296  14.526  38.439  0.00  0.00     0.210 HD
ENDBRANCH   2  25
BRANCH   3  27
ATOM     27  OB3 MOL d          14.536  15.981  40.904  0.00  0.00    -0.390 OA
ATOM     28  H20 MOL d          14.629  15.229  41.478  0.00  0.00     0.210 HD
ENDBRANCH   3  27
BRANCH   5  29
ATOM     29  CB6 MOL d          10.761  16.257  37.450  0.00  0.00     0.198 C 
BRANCH  29  30
ATOM     30  OB6 MOL d          10.631  17.561  37.904  0.00  0.00    -0.398 OA
ATOM     31  H21 MOL d          11.211  18.127  37.408  0.00  0.00     0.209 HD
ENDBRANCH  29  30
ENDBRANCH   5  29
BRANCH   4  32
ATOM     32  OB4 MOL d          11.704  15.842  40.357  0.00  0.00    -0.348 OA
BRANCH  32  33
ATOM     33  CD1 MOL d          11.193  17.010  41.083  0.00  0.00     0.292 C 
ATOM     34  CD2 MOL d          11.365  16.935  42.654  0.00  0.00     0.204 C 
ATOM     35  CD3 MOL d          10.524  15.695  43.187  0.00  0.00     0.183 C 
ATOM     36  CD4 MOL d           9.019  15.933  42.848  0.00  0.00     0.183 C 
ATOM     37  CD5 MOL d           8.862  16.055  41.223  0.00  0.00     0.179 C 
ATOM     38  OD5 MOL d           9.731  17.185  40.752  0.00  0.00    -0.348 OA
BRANCH  34  39
ATOM     39  OD2 MOL d          12.773  16.780  42.925  0.00  0.00    -0.388 OA
ATOM     40  H29 MOL d          12.888  16.242  43.700  0.00  0.00     0.210 HD
ENDBRANCH  34  39
BRANCH  35  41
ATOM     41  OD3 MOL d          10.656  15.609  44.584  0.00  0.00    -0.390 OA
ATOM     42  H30 MOL d           9.996  15.018  44.927  0.00  0.00     0.210 HD
ENDBRANCH  35  41
BRANCH  36  43
ATOM     43  OD4 MOL d           8.200  14.808  43.319  0.00  0.00    -0.385 OA
ATOM     44  CD7 MOL d           7.220  15.155  44.334  0.00  0.00     0.202 C 
ENDBRANCH  36  43
BRANCH  37  45
ATOM     45  CD6 MOL d           7.381  16.323  40.825  0.00  0.00     0.198 C 
BRANCH  45  46
ATOM     46  OD6 MOL d           6.608  15.117  40.820  0.00  0.00    -0.398 OA
ATOM     47  H31 MOL d           7.124  14.414  40.444  0.00  0.00     0.209 HD
ENDBRANCH  45  46
ENDBRANCH  37  45
ENDBRANCH  32  33
ENDBRANCH   4  32
TORSDOF 18
ENDMDL
MODEL 4
REMARK VINA RESULT:      -7.0      1.945      3.481
REMARK  18 active torsions:
REMARK  status: ('A' for Active; 'I' for Inactive)
REMARK    1  A    between atoms: NA1_2  and  OA7_3 
REMARK    2  A    between atoms: CA2_4  and  OA2_5 
REMARK    3  A    between atoms: CA3_6  and  OA3_7 
REMARK    4  A    between atoms: CA4_8  and  OA4_9 
REMARK    5  A    between atoms: OA4_9  and  CB1_14 
REMARK    6  A    between atoms: CA5_10  and  CA6_12 
REMARK    7  A    between atoms: CA6_12  and  OA6_13 
REMARK    8  A    between atoms: CB2_15  and  OB2_20 
REMARK    9  A    between atoms: CB3_16  and  OB3_21 
REMARK   10  A    between atoms: CB4_17  and  OB4_22 
REMARK   11  A    between atoms: CB5_18  and  CB6_19 
REMARK   12  A    between atoms: CB6_19  and  OB6_24 
REMARK   13  A    between atoms: OB4_22  and  CD1_25 
REMARK   14  A    between atoms: CD2_26  and  OD2_31 
REMARK   15  A    between atoms: CD3_27  and  OD3_32 
REMARK   16  A    between atoms: CD4_28  and  OD4_33 
REMARK   17  A    between atoms: CD5_29  and  CD6_30 
REMARK   18  A    between atoms: CD6_30  and  OD6_35 
ROOT
ATOM      1  CB1 MOL d          12.520  15.419  39.676  0.00  0.00     0.292 C 
ATOM      2  CB2 MOL d          13.894  14.680  40.040  0.00  0.00     0.204 C 
ATOM      3  CB3 MOL d          14.956  14.765  38.883  0.00  0.00     0.183 C 
ATOM      4  CB4 MOL d          14.313  14.107  37.618  0.00  0.00     0.187 C 
ATOM      5  CB5 MOL d          12.951  14.992  37.243  0.00  0.00     0.180 C 
ATOM      6  OB5 MOL d          12.004  14.912  38.380  0.00  0.00    -0.348 OA
ENDROOT
BRANCH   1   7
ATOM      7  OA4 MOL d          12.766  16.818  39.655  0.00  0.00    -0.348 OA
BRANCH   7   8
ATOM      8  CA4 MOL d          11.782  17.536  40.178  0.00  0.00     0.181 C 
ATOM      9  CA3 MOL d          10.404  16.929  39.727  0.00  0.00     0.185 C 
ATOM     10  CA2 MOL d           9.264  17.388  40.702  0.00  0.00     0.220 C 
ATOM     11  CA1 MOL d           9.666  17.012  42.141  0.00  0.00     0.159 C 
ATOM     12  NA1 MOL d           8.715  16.645  42.986  0.00  0.00    -0.120 NA
ATOM     13  NA5 MOL d          11.027  17.076  42.572  0.00  0.00    -0.365 N 
ATOM     14  CA5 MOL d          12.112  17.418  41.633  0.00  0.00     0.138 C 
ATOM     15  H8  MOL d          11.255  16.880  43.557  0.00  0.00     0.161 HD
BRANCH   9  16
ATOM     16  OA3 MOL d          10.087  17.253  38.480  0.00  0.00    -0.390 OA
ATOM     17  H5  MOL d          10.036  18.199  38.403  0.00  0.00     0.210 HD
ENDBRANCH   9  16
BRANCH  10  18
ATOM     18  OA2 MOL d           8.042  16.931  40.386  0.00  0.00    -0.385 OA
ATOM     19  H3  MOL d           8.101  16.016  40.142  0.00  0.00     0.210 HD
ENDBRANCH  10  18
BRANCH  12  20
ATOM     20  OA7 MOL d           9.082  16.323  44.216  0.00  0.00    -0.265 OA
ATOM     21  H1  MOL d           8.429  16.634  44.832  0.00  0.00     0.247 HD
ENDBRANCH  12  20
BRANCH  14  22
ATOM     22  CA6 MOL d          12.678  18.788  42.126  0.00  0.00     0.191 C 
BRANCH  22  23
ATOM     23  OA6 MOL d          11.985  19.234  43.222  0.00  0.00    -0.399 OA
ATOM     24  H11 MOL d          12.596  19.429  43.923  0.00  0.00     0.209 HD
ENDBRANCH  22  23
ENDBRANCH  14  22
ENDBRANCH   7   8
ENDBRANCH   1   7
BRANCH   2  25
ATOM     25  OB2 MOL d          14.387  15.246  41.277  0.00  0.00    -0.388 OA
ATOM     26  H19 MOL d          14.754  14.556  41.817  0.00  0.00     0.210 HD
ENDBRANCH   2  25
BRANCH   3  27
ATOM     27  OB3 MOL d          16.147  14.050  39.296  0.00  0.00    -0.390 OA
ATOM     28  H20 MOL d          16.038  13.124  39.113  0.00  0.00     0.210 HD
ENDBRANCH   3  27
BRANCH   5  29
ATOM     29  CB6 MOL d          12.225  14.462  36.022  0.00  0.00     0.198 C 
BRANCH  29  30
ATOM     30  OB6 MOL d          12.830  14.911  34.857  0.00  0.00    -0.398 OA
ATOM     31  H21 MOL d          13.599  15.424  35.078  0.00  0.00     0.209 HD
ENDBRANCH  29  30
ENDBRANCH   5  29
BRANCH   4  32
ATOM     32  OB4 MOL d          15.248  14.162  36.554  0.00  0.00    -0.348 OA
BRANCH  32  33
ATOM     33  CD1 MOL d          15.469  12.834  35.971  0.00  0.00     0.292 C 
ATOM     34  CD2 MOL d          16.955  12.304  36.087  0.00  0.00     0.204 C 
ATOM     35  CD3 MOL d          17.901  13.292  35.276  0.00  0.00     0.183 C 
ATOM     36  CD4 MOL d          17.467  13.275  33.775  0.00  0.00     0.183 C 
ATOM     37  CD5 MOL d          15.913  13.783  33.675  0.00  0.00     0.179 C 
ATOM     38  OD5 MOL d          15.068  12.871  34.516  0.00  0.00    -0.348 OA
BRANCH  34  39
ATOM     39  OD2 MOL d          17.292  12.274  37.488  0.00  0.00    -0.388 OA
ATOM     40  H29 MOL d          16.805  12.950  37.945  0.00  0.00     0.210 HD
ENDBRANCH  34  39
BRANCH  35  41
ATOM     41  OD3 MOL d          19.228  12.838  35.358  0.00  0.00    -0.390 OA
ATOM     42  H30 MOL d          19.330  12.060  34.823  0.00  0.00     0.210 HD
ENDBRANCH  35  41
BRANCH  36  43
ATOM     43  OD4 MOL d          18.312  14.180  32.984  0.00  0.00    -0.385 OA
ATOM     44  CD7 MOL d          19.134  13.520  31.984  0.00  0.00     0.202 C 
ENDBRANCH  36  43
BRANCH  37  45
ATOM     45  CD6 MOL d          15.415  13.759  32.200  0.00  0.00     0.198 C 
BRANCH  45  46
ATOM     46  OD6 MOL d          14.078  14.262  32.086  0.00  0.00    -0.398 OA
ATOM     47  H31 MOL d          14.063  14.978  31.462  0.00  0.00     0.209 HD
ENDBRANCH  45  46
ENDBRANCH  37  45
ENDBRANCH  32  33
ENDBRANCH   4  32
TORSDOF 18
ENDMDL
MODEL 5
REMARK VINA RESULT:      -7.0      1.842      2.861
REMARK  18 active torsions:
REMARK  status: ('A' for Active; 'I' for Inactive)
REMARK    1  A    between atoms: NA1_2  and  OA7_3 
REMARK    2  A    between atoms: CA2_4  and  OA2_5 
REMARK    3  A    between atoms: CA3_6  and  OA3_7 
REMARK    4  A    between atoms: CA4_8  and  OA4_9 
REMARK    5  A    between atoms: OA4_9  and  CB1_14 
REMARK    6  A    between atoms: CA5_10  and  CA6_12 
REMARK    7  A    between atoms: CA6_12  and  OA6_13 
REMARK    8  A    between atoms: CB2_15  and  OB2_20 
REMARK    9  A    between atoms: CB3_16  and  OB3_21 
REMARK   10  A    between atoms: CB4_17  and  OB4_22 
REMARK   11  A    between atoms: CB5_18  and  CB6_19 
REMARK   12  A    between atoms: CB6_19  and  OB6_24 
REMARK   13  A    between atoms: OB4_22  and  CD1_25 
REMARK   14  A    between atoms: CD2_26  and  OD2_31 
REMARK   15  A    between atoms: CD3_27  and  OD3_32 
REMARK   16  A    between atoms: CD4_28  and  OD4_33 
REMARK   17  A    between atoms: CD5_29  and  CD6_30 
REMARK   18  A    between atoms: CD6_30  and  OD6_35 
ROOT
ATOM      1  CB1 MOL d          12.167  16.400  38.901  0.00  0.00     0.292 C 
ATOM      2  CB2 MOL d          11.966  16.396  37.311  0.00  0.00     0.204 C 
ATOM      3  CB3 MOL d          12.678  15.180  36.611  0.00  0.00     0.183 C 
ATOM      4  CB4 MOL d          14.200  15.276  36.957  0.00  0.00     0.187 C 
ATOM      5  CB5 MOL d          14.334  15.169  38.616  0.00  0.00     0.180 C 
ATOM      6  OB5 MOL d          13.613  16.312  39.225  0.00  0.00    -0.348 OA
ENDROOT
BRANCH   1   7
ATOM      7  OA4 MOL d          11.421  15.318  39.441  0.00  0.00    -0.348 OA
BRANCH   7   8
ATOM      8  CA4 MOL d          10.990  15.537  40.675  0.00  0.00     0.181 C 
ATOM      9  CA3 MOL d          12.153  15.230  41.689  0.00  0.00     0.185 C 
ATOM     10  CA2 MOL d          11.884  15.950  43.057  0.00  0.00     0.220 C 
ATOM     11  CA1 MOL d          11.676  17.453  42.789  0.00  0.00     0.159 C 
ATOM     12  NA1 MOL d          12.111  18.321  43.689  0.00  0.00    -0.120 NA
ATOM     13  NA5 MOL d          11.009  17.911  41.610  0.00  0.00    -0.365 N 
ATOM     14  CA5 MOL d          10.574  16.970  40.561  0.00  0.00     0.138 C 
ATOM     15  H8  MOL d          10.829  18.919  41.491  0.00  0.00     0.161 HD
BRANCH   9  16
ATOM     16  OA3 MOL d          12.324  13.930  41.892  0.00  0.00    -0.390 OA
ATOM     17  H5  MOL d          12.686  13.791  42.759  0.00  0.00     0.210 HD
ENDBRANCH   9  16
BRANCH  10  18
ATOM     18  OA2 MOL d          12.818  15.732  43.996  0.00  0.00    -0.385 OA
ATOM     19  H3  MOL d          12.796  16.436  44.632  0.00  0.00     0.210 HD
ENDBRANCH  10  18
BRANCH  12  20
ATOM     20  OA7 MOL d          11.925  19.607  43.438  0.00  0.00    -0.265 OA
ATOM     21  H1  MOL d          12.737  19.987  43.122  0.00  0.00     0.247 HD
ENDBRANCH  12  20
BRANCH  14  22
ATOM     22  CA6 MOL d           9.013  17.034  40.561  0.00  0.00     0.191 C 
BRANCH  22  23
ATOM     23  OA6 MOL d           8.506  16.515  39.397  0.00  0.00    -0.399 OA
ATOM     24  H11 MOL d           9.078  16.742  38.674  0.00  0.00     0.209 HD
ENDBRANCH  22  23
ENDBRANCH  14  22
ENDBRANCH   7   8
ENDBRANCH   1   7
BRANCH   2  25
ATOM     25  OB2 MOL d          10.544  16.424  37.046  0.00  0.00    -0.388 OA
ATOM     26  H19 MOL d          10.309  15.680  36.504  0.00  0.00     0.210 HD
ENDBRANCH   2  25
BRANCH   3  27
ATOM     27  OB3 MOL d          12.460  15.279  35.182  0.00  0.00    -0.390 OA
ATOM     28  H20 MOL d          12.517  14.414  34.794  0.00  0.00     0.210 HD
ENDBRANCH   3  27
BRANCH   5  29
ATOM     29  CB6 MOL d          15.770  15.244  39.094  0.00  0.00     0.198 C 
BRANCH  29  30
ATOM     30  OB6 MOL d          16.373  13.996  39.036  0.00  0.00    -0.398 OA
ATOM     31  H21 MOL d          16.608  13.718  39.914  0.00  0.00     0.209 HD
ENDBRANCH  29  30
ENDBRANCH   5  29
BRANCH   4  32
ATOM     32  OB4 MOL d          14.875  14.195  36.336  0.00  0.00    -0.348 OA
BRANCH  32  33
ATOM     33  CD1 MOL d          16.132  14.636  35.721  0.00  0.00     0.292 C 
ATOM     34  CD2 MOL d          16.136  14.605  34.140  0.00  0.00     0.204 C 
ATOM     35  CD3 MOL d          15.933  13.100  33.670  0.00  0.00     0.183 C 
ATOM     36  CD4 MOL d          17.130  12.248  34.202  0.00  0.00     0.183 C 
ATOM     37  CD5 MOL d          17.140  12.326  35.838  0.00  0.00     0.179 C 
ATOM     38  OD5 MOL d          17.254  13.768  36.237  0.00  0.00    -0.348 OA
BRANCH  34  39
ATOM     39  OD2 MOL d          15.060  15.452  33.690  0.00  0.00    -0.388 OA
ATOM     40  H29 MOL d          14.969  15.375  32.748  0.00  0.00     0.210 HD
ENDBRANCH  34  39
BRANCH  35  41
ATOM     41  OD3 MOL d          15.940  13.044  32.266  0.00  0.00    -0.390 OA
ATOM     42  H30 MOL d          15.486  12.260  31.979  0.00  0.00     0.210 HD
ENDBRANCH  35  41
BRANCH  36  43
ATOM     43  OD4 MOL d          16.984  10.843  33.797  0.00  0.00    -0.385 OA
ATOM     44  CD7 MOL d          18.072  10.333  32.980  0.00  0.00     0.202 C 
ENDBRANCH  36  43
BRANCH  37  45
ATOM     45  CD6 MOL d          18.333  11.516  36.425  0.00  0.00     0.198 C 
BRANCH  45  46
ATOM     46  OD6 MOL d          19.591  12.122  36.108  0.00  0.00    -0.398 OA
ATOM     47  H31 MOL d          20.175  12.047  36.854  0.00  0.00     0.209 HD
ENDBRANCH  45  46
ENDBRANCH  37  45
ENDBRANCH  32  33
ENDBRANCH   4  32
TORSDOF 18
ENDMDL
MODEL 6
REMARK VINA RESULT:      -6.7      3.366      5.824
REMARK  18 active torsions:
REMARK  status: ('A' for Active; 'I' for Inactive)
REMARK    1  A    between atoms: NA1_2  and  OA7_3 
REMARK    2  A    between atoms: CA2_4  and  OA2_5 
REMARK    3  A    between atoms: CA3_6  and  OA3_7 
REMARK    4  A    between atoms: CA4_8  and  OA4_9 
REMARK    5  A    between atoms: OA4_9  and  CB1_14 
REMARK    6  A    between atoms: CA5_10  and  CA6_12 
REMARK    7  A    between atoms: CA6_12  and  OA6_13 
REMARK    8  A    between atoms: CB2_15  and  OB2_20 
REMARK    9  A    between atoms: CB3_16  and  OB3_21 
REMARK   10  A    between atoms: CB4_17  and  OB4_22 
REMARK   11  A    between atoms: CB5_18  and  CB6_19 
REMARK   12  A    between atoms: CB6_19  and  OB6_24 
REMARK   13  A    between atoms: OB4_22  and  CD1_25 
REMARK   14  A    between atoms: CD2_26  and  OD2_31 
REMARK   15  A    between atoms: CD3_27  and  OD3_32 
REMARK   16  A    between atoms: CD4_28  and  OD4_33 
REMARK   17  A    between atoms: CD5_29  and  CD6_30 
REMARK   18  A    between atoms: CD6_30  and  OD6_35 
ROOT
ATOM      1  CB1 MOL d          13.012  14.727  37.963  0.00  0.00     0.292 C 
ATOM      2  CB2 MOL d          14.403  14.440  37.223  0.00  0.00     0.204 C 
ATOM      3  CB3 MOL d          14.748  15.522  36.135  0.00  0.00     0.183 C 
ATOM      4  CB4 MOL d          13.579  15.520  35.096  0.00  0.00     0.187 C 
ATOM      5  CB5 MOL d          12.189  15.928  35.921  0.00  0.00     0.180 C 
ATOM      6  OB5 MOL d          11.933  14.900  36.958  0.00  0.00    -0.348 OA
ENDROOT
BRANCH   1   7
ATOM      7  OA4 MOL d          13.180  15.874  38.785  0.00  0.00    -0.348 OA
BRANCH   7   8
ATOM      8  CA4 MOL d          12.167  16.085  39.613  0.00  0.00     0.181 C 
ATOM      9  CA3 MOL d          12.448  15.341  40.970  0.00  0.00     0.185 C 
ATOM     10  CA2 MOL d          11.580  15.965  42.119  0.00  0.00     0.220 C 
ATOM     11  CA1 MOL d          11.854  17.480  42.175  0.00  0.00     0.159 C 
ATOM     12  NA1 MOL d          11.845  18.080  43.355  0.00  0.00    -0.120 NA
ATOM     13  NA5 MOL d          12.092  18.235  40.984  0.00  0.00    -0.365 N 
ATOM     14  CA5 MOL d          12.174  17.580  39.666  0.00  0.00     0.138 C 
ATOM     15  H8  MOL d          12.208  19.257  41.049  0.00  0.00     0.161 HD
BRANCH   9  16
ATOM     16  OA3 MOL d          12.220  14.036  40.894  0.00  0.00    -0.390 OA
ATOM     17  H5  MOL d          12.910  13.624  40.387  0.00  0.00     0.210 HD
ENDBRANCH   9  16
BRANCH  10  18
ATOM     18  OA2 MOL d          11.740  15.382  43.318  0.00  0.00    -0.385 OA
ATOM     19  H3  MOL d          11.921  16.047  43.971  0.00  0.00     0.210 HD
ENDBRANCH  10  18
BRANCH  12  20
ATOM     20  OA7 MOL d          12.086  19.381  43.381  0.00  0.00    -0.265 OA
ATOM     21  H1  MOL d          12.785  19.560  43.998  0.00  0.00     0.247 HD
ENDBRANCH  12  20
BRANCH  14  22
ATOM     22  CA6 MOL d          10.946  18.109  38.857  0.00  0.00     0.191 C 
BRANCH  22  23
ATOM     23  OA6 MOL d          10.145  17.072  38.453  0.00  0.00    -0.399 OA
ATOM     24  H11 MOL d          10.647  16.483  37.900  0.00  0.00     0.209 HD
ENDBRANCH  22  23
ENDBRANCH  14  22
ENDBRANCH   7   8
ENDBRANCH   1   7
BRANCH   2  25
ATOM     25  OB2 MOL d          15.430  14.336  38.237  0.00  0.00    -0.388 OA
ATOM     26  H19 MOL d          16.100  13.728  37.947  0.00  0.00     0.210 HD
ENDBRANCH   2  25
BRANCH   3  27
ATOM     27  OB3 MOL d          16.004  15.161  35.508  0.00  0.00    -0.390 OA
ATOM     28  H20 MOL d          15.850  14.940  34.597  0.00  0.00     0.210 HD
ENDBRANCH   3  27
BRANCH   5  29
ATOM     29  CB6 MOL d          10.966  15.968  35.026  0.00  0.00     0.198 C 
BRANCH  29  30
ATOM     30  OB6 MOL d          10.856  17.201  34.400  0.00  0.00    -0.398 OA
ATOM     31  H21 MOL d           9.984  17.293  34.033  0.00  0.00     0.209 HD
ENDBRANCH  29  30
ENDBRANCH   5  29
BRANCH   4  32
ATOM     32  OB4 MOL d          13.861  16.483  34.095  0.00  0.00    -0.348 OA
BRANCH  32  33
ATOM     33  CD1 MOL d          13.698  15.917  32.751  0.00  0.00     0.292 C 
ATOM     34  CD2 MOL d          15.013  15.922  31.871  0.00  0.00     0.204 C 
ATOM     35  CD3 MOL d          15.457  17.433  31.650  0.00  0.00     0.183 C 
ATOM     36  CD4 MOL d          14.321  18.177  30.878  0.00  0.00     0.183 C 
ATOM     37  CD5 MOL d          12.955  18.124  31.779  0.00  0.00     0.179 C 
ATOM     38  OD5 MOL d          12.616  16.683  32.030  0.00  0.00    -0.348 OA
BRANCH  34  39
ATOM     39  OD2 MOL d          16.013  15.173  32.589  0.00  0.00    -0.388 OA
ATOM     40  H29 MOL d          16.099  15.523  33.468  0.00  0.00     0.210 HD
ENDBRANCH  34  39
BRANCH  35  41
ATOM     41  OD3 MOL d          16.622  17.466  30.864  0.00  0.00    -0.390 OA
ATOM     42  H30 MOL d          16.382  17.507  29.945  0.00  0.00     0.210 HD
ENDBRANCH  35  41
BRANCH  36  43
ATOM     43  OD4 MOL d          14.685  19.583  30.653  0.00  0.00    -0.385 OA
ATOM     44  CD7 MOL d          14.784  19.966  29.255  0.00  0.00     0.202 C 
ENDBRANCH  36  43
BRANCH  37  45
ATOM     45  CD6 MOL d          11.776  18.827  31.044  0.00  0.00     0.198 C 
BRANCH  45  46
ATOM     46  OD6 MOL d          10.735  19.203  31.954  0.00  0.00    -0.398 OA
ATOM     47  H31 MOL d          10.320  18.421  32.299  0.00  0.00     0.209 HD
ENDBRANCH  45  46
ENDBRANCH  37  45
ENDBRANCH  32  33
ENDBRANCH   4  32
TORSDOF 18
ENDMDL
MODEL 7
REMARK VINA RESULT:      -6.6      3.204      9.149
REMARK  18 active torsions:
REMARK  status: ('A' for Active; 'I' for Inactive)
REMARK    1  A    between atoms: NA1_2  and  OA7_3 
REMARK    2  A    between atoms: CA2_4  and  OA2_5 
REMARK    3  A    between atoms: CA3_6  and  OA3_7 
REMARK    4  A    between atoms: CA4_8  and  OA4_9 
REMARK    5  A    between atoms: OA4_9  and  CB1_14 
REMARK    6  A    between atoms: CA5_10  and  CA6_12 
REMARK    7  A    between atoms: CA6_12  and  OA6_13 
REMARK    8  A    between atoms: CB2_15  and  OB2_20 
REMARK    9  A    between atoms: CB3_16  and  OB3_21 
REMARK   10  A    between atoms: CB4_17  and  OB4_22 
REMARK   11  A    between atoms: CB5_18  and  CB6_19 
REMARK   12  A    between atoms: CB6_19  and  OB6_24 
REMARK   13  A    between atoms: OB4_22  and  CD1_25 
REMARK   14  A    between atoms: CD2_26  and  OD2_31 
REMARK   15  A    between atoms: CD3_27  and  OD3_32 
REMARK   16  A    between atoms: CD4_28  and  OD4_33 
REMARK   17  A    between atoms: CD5_29  and  CD6_30 
REMARK   18  A    between atoms: CD6_30  and  OD6_35 
ROOT
ATOM      1  CB1 MOL d          14.306  15.797  37.089  0.00  0.00     0.292 C 
ATOM      2  CB2 MOL d          14.958  15.924  38.548  0.00  0.00     0.204 C 
ATOM      3  CB3 MOL d          13.971  15.495  39.695  0.00  0.00     0.183 C 
ATOM      4  CB4 MOL d          12.712  16.417  39.589  0.00  0.00     0.187 C 
ATOM      5  CB5 MOL d          12.034  16.151  38.090  0.00  0.00     0.180 C 
ATOM      6  OB5 MOL d          13.017  16.532  37.049  0.00  0.00    -0.348 OA
ENDROOT
BRANCH   1   7
ATOM      7  OA4 MOL d          14.155  14.415  36.796  0.00  0.00    -0.348 OA
BRANCH   7   8
ATOM      8  CA4 MOL d          14.325  14.125  35.513  0.00  0.00     0.181 C 
ATOM      9  CA3 MOL d          13.012  14.485  34.726  0.00  0.00     0.185 C 
ATOM     10  CA2 MOL d          13.327  14.658  33.198  0.00  0.00     0.220 C 
ATOM     11  CA1 MOL d          14.449  15.702  33.042  0.00  0.00     0.159 C 
ATOM     12  NA1 MOL d          14.423  16.504  31.989  0.00  0.00    -0.120 NA
ATOM     13  NA5 MOL d          15.511  15.797  33.994  0.00  0.00    -0.365 N 
ATOM     14  CA5 MOL d          15.528  14.961  35.209  0.00  0.00     0.138 C 
ATOM     15  H8  MOL d          16.280  16.462  33.828  0.00  0.00     0.161 HD
BRANCH   9  16
ATOM     16  OA3 MOL d          12.055  13.580  34.887  0.00  0.00    -0.390 OA
ATOM     17  H5  MOL d          12.448  12.736  35.079  0.00  0.00     0.210 HD
ENDBRANCH   9  16
BRANCH  10  18
ATOM     18  OA2 MOL d          12.259  14.951  32.438  0.00  0.00    -0.385 OA
ATOM     19  H3  MOL d          12.531  15.495  31.709  0.00  0.00     0.210 HD
ENDBRANCH  10  18
BRANCH  12  20
ATOM     20  OA7 MOL d          15.394  17.396  31.876  0.00  0.00    -0.265 OA
ATOM     21  H1  MOL d          15.798  17.315  31.021  0.00  0.00     0.247 HD
ENDBRANCH  12  20
BRANCH  14  22
ATOM     22  CA6 MOL d          16.761  14.015  35.052  0.00  0.00     0.191 C 
BRANCH  22  23
ATOM     23  OA6 MOL d          17.221  13.607  36.278  0.00  0.00    -0.399 OA
ATOM     24  H11 MOL d          16.484  13.361  36.825  0.00  0.00     0.209 HD
ENDBRANCH  22  23
ENDBRANCH  14  22
ENDBRANCH   7   8
ENDBRANCH   1   7
BRANCH   2  25
ATOM     25  OB2 MOL d          16.178  15.147  38.556  0.00  0.00    -0.388 OA
ATOM     26  H19 MOL d          15.964  14.223  38.508  0.00  0.00     0.210 HD
ENDBRANCH   2  25
BRANCH   3  27
ATOM     27  OB3 MOL d          14.640  15.669  40.968  0.00  0.00    -0.390 OA
ATOM     28  H20 MOL d          14.109  16.221  41.531  0.00  0.00     0.210 HD
ENDBRANCH   3  27
BRANCH   5  29
ATOM     29  CB6 MOL d          10.790  16.985  37.852  0.00  0.00     0.198 C 
BRANCH  29  30
ATOM     30  OB6 MOL d          10.909  18.227  38.457  0.00  0.00    -0.398 OA
ATOM     31  H21 MOL d          11.316  18.836  37.850  0.00  0.00     0.209 HD
ENDBRANCH  29  30
ENDBRANCH   5  29
BRANCH   4  32
ATOM     32  OB4 MOL d          11.801  16.060  40.615  0.00  0.00    -0.348 OA
BRANCH  32  33
ATOM     33  CD1 MOL d          11.565  17.182  41.530  0.00  0.00     0.292 C 
ATOM     34  CD2 MOL d          11.655  16.809  43.065  0.00  0.00     0.204 C 
ATOM     35  CD3 MOL d          10.518  15.745  43.386  0.00  0.00     0.183 C 
ATOM     36  CD4 MOL d           9.129  16.400  43.099  0.00  0.00     0.183 C 
ATOM     37  CD5 MOL d           9.067  16.822  41.519  0.00  0.00     0.179 C 
ATOM     38  OD5 MOL d          10.202  17.764  41.241  0.00  0.00    -0.348 OA
BRANCH  34  39
ATOM     39  OD2 MOL d          12.971  16.269  43.299  0.00  0.00    -0.388 OA
ATOM     40  H29 MOL d          13.452  16.241  42.479  0.00  0.00     0.210 HD
ENDBRANCH  34  39
BRANCH  35  41
ATOM     41  OD3 MOL d          10.574  15.401  44.748  0.00  0.00    -0.390 OA
ATOM     42  H30 MOL d          10.464  16.184  45.276  0.00  0.00     0.210 HD
ENDBRANCH  35  41
BRANCH  36  43
ATOM     43  OD4 MOL d           8.044  15.450  43.379  0.00  0.00    -0.385 OA
ATOM     44  CD7 MOL d           7.826  14.457  42.340  0.00  0.00     0.202 C 
ENDBRANCH  36  43
BRANCH  37  45
ATOM     45  CD6 MOL d           7.712  17.509  41.180  0.00  0.00     0.198 C 
BRANCH  45  46
ATOM     46  OD6 MOL d           7.127  16.967  39.990  0.00  0.00    -0.398 OA
ATOM     47  H31 MOL d           7.705  17.128  39.253  0.00  0.00     0.209 HD
ENDBRANCH  45  46
ENDBRANCH  37  45
ENDBRANCH  32  33
ENDBRANCH   4  32
TORSDOF 18
ENDMDL
MODEL 8
REMARK VINA RESULT:      -6.5      2.431      4.435
REMARK  18 active torsions:
REMARK  status: ('A' for Active; 'I' for Inactive)
REMARK    1  A    between atoms: NA1_2  and  OA7_3 
REMARK    2  A    between atoms: CA2_4  and  OA2_5 
REMARK    3  A    between atoms: CA3_6  and  OA3_7 
REMARK    4  A    between atoms: CA4_8  and  OA4_9 
REMARK    5  A    between atoms: OA4_9  and  CB1_14 
REMARK    6  A    between atoms: CA5_10  and  CA6_12 
REMARK    7  A    between atoms: CA6_12  and  OA6_13 
REMARK    8  A    between atoms: CB2_15  and  OB2_20 
REMARK    9  A    between atoms: CB3_16  and  OB3_21 
REMARK   10  A    between atoms: CB4_17  and  OB4_22 
REMARK   11  A    between atoms: CB5_18  and  CB6_19 
REMARK   12  A    between atoms: CB6_19  and  OB6_24 
REMARK   13  A    between atoms: OB4_22  and  CD1_25 
REMARK   14  A    between atoms: CD2_26  and  OD2_31 
REMARK   15  A    between atoms: CD3_27  and  OD3_32 
REMARK   16  A    between atoms: CD4_28  and  OD4_33 
REMARK   17  A    between atoms: CD5_29  and  CD6_30 
REMARK   18  A    between atoms: CD6_30  and  OD6_35 
ROOT
ATOM      1  CB1 MOL d          12.059  15.434  39.567  0.00  0.00     0.292 C 
ATOM      2  CB2 MOL d          13.364  14.686  39.015  0.00  0.00     0.204 C 
ATOM      3  CB3 MOL d          13.984  15.395  37.755  0.00  0.00     0.183 C 
ATOM      4  CB4 MOL d          12.877  15.424  36.651  0.00  0.00     0.187 C 
ATOM      5  CB5 MOL d          11.598  16.304  37.260  0.00  0.00     0.180 C 
ATOM      6  OB5 MOL d          11.080  15.616  38.466  0.00  0.00    -0.348 OA
ENDROOT
BRANCH   1   7
ATOM      7  OA4 MOL d          12.469  16.667  40.141  0.00  0.00    -0.348 OA
BRANCH   7   8
ATOM      8  CA4 MOL d          11.608  17.150  41.026  0.00  0.00     0.181 C 
ATOM      9  CA3 MOL d          10.219  17.375  40.324  0.00  0.00     0.185 C 
ATOM     10  CA2 MOL d           9.074  17.435  41.396  0.00  0.00     0.220 C 
ATOM     11  CA1 MOL d           9.136  16.157  42.253  0.00  0.00     0.159 C 
ATOM     12  NA1 MOL d           8.000  15.636  42.692  0.00  0.00    -0.120 NA
ATOM     13  NA5 MOL d          10.385  15.550  42.593  0.00  0.00    -0.365 N 
ATOM     14  CA5 MOL d          11.659  16.072  42.062  0.00  0.00     0.138 C 
ATOM     15  H8  MOL d          10.396  14.733  43.221  0.00  0.00     0.161 HD
BRANCH   9  16
ATOM     16  OA3 MOL d          10.195  18.473  39.580  0.00  0.00    -0.390 OA
ATOM     17  H5  MOL d          10.203  19.238  40.144  0.00  0.00     0.210 HD
ENDBRANCH   9  16
BRANCH  10  18
ATOM     18  OA2 MOL d           7.848  17.642  40.891  0.00  0.00    -0.385 OA
ATOM     19  H3  MOL d           7.705  17.056  40.158  0.00  0.00     0.210 HD
ENDBRANCH  10  18
BRANCH  12  20
ATOM     20  OA7 MOL d           8.076  14.536  43.424  0.00  0.00    -0.265 OA
ATOM     21  H1  MOL d           7.258  14.411  43.891  0.00  0.00     0.247 HD
ENDBRANCH  12  20
BRANCH  14  22
ATOM     22  CA6 MOL d          12.441  16.612  43.302  0.00  0.00     0.191 C 
BRANCH  22  23
ATOM     23  OA6 MOL d          11.946  17.828  43.697  0.00  0.00    -0.399 OA
ATOM     24  H11 MOL d          12.364  18.089  44.510  0.00  0.00     0.209 HD
ENDBRANCH  22  23
ENDBRANCH  14  22
ENDBRANCH   7   8
ENDBRANCH   1   7
BRANCH   2  25
ATOM     25  OB2 MOL d          14.310  14.584  40.105  0.00  0.00    -0.388 OA
ATOM     26  H19 MOL d          14.418  13.671  40.345  0.00  0.00     0.210 HD
ENDBRANCH   2  25
BRANCH   3  27
ATOM     27  OB3 MOL d          15.137  14.635  37.318  0.00  0.00    -0.390 OA
ATOM     28  H20 MOL d          15.454  14.102  38.038  0.00  0.00     0.210 HD
ENDBRANCH   3  27
BRANCH   5  29
ATOM     29  CB6 MOL d          10.445  16.417  36.283  0.00  0.00     0.198 C 
BRANCH  29  30
ATOM     30  OB6 MOL d           9.640  17.503  36.596  0.00  0.00    -0.398 OA
ATOM     31  H21 MOL d           8.742  17.211  36.701  0.00  0.00     0.209 HD
ENDBRANCH  29  30
ENDBRANCH   5  29
BRANCH   4  32
ATOM     32  OB4 MOL d          13.405  16.054  35.496  0.00  0.00    -0.348 OA
BRANCH  32  33
ATOM     33  CD1 MOL d          13.122  15.272  34.287  0.00  0.00     0.292 C 
ATOM     34  CD2 MOL d          14.400  14.663  33.583  0.00  0.00     0.204 C 
ATOM     35  CD3 MOL d          15.327  15.866  33.109  0.00  0.00     0.183 C 
ATOM     36  CD4 MOL d          14.534  16.726  32.075  0.00  0.00     0.183 C 
ATOM     37  CD5 MOL d          13.190  17.311  32.804  0.00  0.00     0.179 C 
ATOM     38  OD5 MOL d          12.384  16.148  33.304  0.00  0.00    -0.348 OA
BRANCH  34  39
ATOM     39  OD2 MOL d          15.067  13.827  34.550  0.00  0.00    -0.388 OA
ATOM     40  H29 MOL d          14.670  12.964  34.548  0.00  0.00     0.210 HD
ENDBRANCH  34  39
BRANCH  35  41
ATOM     41  OD3 MOL d          16.470  15.351  32.474  0.00  0.00    -0.390 OA
ATOM     42  H30 MOL d          16.415  14.402  32.445  0.00  0.00     0.210 HD
ENDBRANCH  35  41
BRANCH  36  43
ATOM     43  OD4 MOL d          15.350  17.856  31.610  0.00  0.00    -0.385 OA
ATOM     44  CD7 MOL d          15.649  17.842  30.188  0.00  0.00     0.202 C 
ENDBRANCH  36  43
BRANCH  37  45
ATOM     45  CD6 MOL d          12.341  18.156  31.809  0.00  0.00     0.198 C 
BRANCH  45  46
ATOM     46  OD6 MOL d          12.830  19.499  31.704  0.00  0.00    -0.398 OA
ATOM     47  H31 MOL d          12.099  20.104  31.744  0.00  0.00     0.209 HD
ENDBRANCH  45  46
ENDBRANCH  37  45
ENDBRANCH  32  33
ENDBRANCH   4  32
TORSDOF 18
ENDMDL
MODEL 9
REMARK VINA RESULT:      -6.4      4.450      6.830
REMARK  18 active torsions:
REMARK  status: ('A' for Active; 'I' for Inactive)
REMARK    1  A    between atoms: NA1_2  and  OA7_3 
REMARK    2  A    between atoms: CA2_4  and  OA2_5 
REMARK    3  A    between atoms: CA3_6  and  OA3_7 
REMARK    4  A    between atoms: CA4_8  and  OA4_9 
REMARK    5  A    between atoms: OA4_9  and  CB1_14 
REMARK    6  A    between atoms: CA5_10  and  CA6_12 
REMARK    7  A    between atoms: CA6_12  and  OA6_13 
REMARK    8  A    between atoms: CB2_15  and  OB2_20 
REMARK    9  A    between atoms: CB3_16  and  OB3_21 
REMARK   10  A    between atoms: CB4_17  and  OB4_22 
REMARK   11  A    between atoms: CB5_18  and  CB6_19 
REMARK   12  A    between atoms: CB6_19  and  OB6_24 
REMARK   13  A    between atoms: OB4_22  and  CD1_25 
REMARK   14  A    between atoms: CD2_26  and  OD2_31 
REMARK   15  A    between atoms: CD3_27  and  OD3_32 
REMARK   16  A    between atoms: CD4_28  and  OD4_33 
REMARK   17  A    between atoms: CD5_29  and  CD6_30 
REMARK   18  A    between atoms: CD6_30  and  OD6_35 
ROOT
ATOM      1  CB1 MOL d          10.547  15.963  39.169  0.00  0.00     0.292 C 
ATOM      2  CB2 MOL d          11.355  15.568  37.842  0.00  0.00     0.204 C 
ATOM      3  CB3 MOL d          10.688  16.130  36.534  0.00  0.00     0.183 C 
ATOM      4  CB4 MOL d           9.237  15.550  36.470  0.00  0.00     0.187 C 
ATOM      5  CB5 MOL d           8.432  16.090  37.827  0.00  0.00     0.180 C 
ATOM      6  OB5 MOL d           9.124  15.566  39.028  0.00  0.00    -0.348 OA
ENDROOT
BRANCH   1   7
ATOM      7  OA4 MOL d          10.705  17.360  39.379  0.00  0.00    -0.348 OA
BRANCH   7   8
ATOM      8  CA4 MOL d          10.639  17.713  40.655  0.00  0.00     0.181 C 
ATOM      9  CA3 MOL d           9.309  17.152  41.277  0.00  0.00     0.185 C 
ATOM     10  CA2 MOL d           9.428  17.084  42.840  0.00  0.00     0.220 C 
ATOM     11  CA1 MOL d          10.678  16.259  43.202  0.00  0.00     0.159 C 
ATOM     12  NA1 MOL d          10.639  15.497  44.284  0.00  0.00    -0.120 NA
ATOM     13  NA5 MOL d          11.865  16.323  42.408  0.00  0.00    -0.365 N 
ATOM     14  CA5 MOL d          11.911  17.111  41.163  0.00  0.00     0.138 C 
ATOM     15  H8  MOL d          12.705  15.809  42.713  0.00  0.00     0.161 HD
BRANCH   9  16
ATOM     16  OA3 MOL d           8.244  17.870  40.939  0.00  0.00    -0.390 OA
ATOM     17  H5  MOL d           7.732  17.391  40.297  0.00  0.00     0.210 HD
ENDBRANCH   9  16
BRANCH  10  18
ATOM     18  OA2 MOL d           8.330  16.631  43.465  0.00  0.00    -0.385 OA
ATOM     19  H3  MOL d           8.572  15.937  44.066  0.00  0.00     0.210 HD
ENDBRANCH  10  18
BRANCH  12  20
ATOM     20  OA7 MOL d          11.722  14.793  44.575  0.00  0.00    -0.265 OA
ATOM     21  H1  MOL d          11.636  13.918  44.216  0.00  0.00     0.247 HD
ENDBRANCH  12  20
BRANCH  14  22
ATOM     22  CA6 MOL d          12.931  18.264  41.433  0.00  0.00     0.191 C 
BRANCH  22  23
ATOM     23  OA6 MOL d          12.412  19.176  42.316  0.00  0.00    -0.399 OA
ATOM     24  H11 MOL d          11.620  19.552  41.951  0.00  0.00     0.209 HD
ENDBRANCH  22  23
ENDBRANCH  14  22
ENDBRANCH   7   8
ENDBRANCH   1   7
BRANCH   2  25
ATOM     25  OB2 MOL d          12.718  16.025  38.002  0.00  0.00    -0.388 OA
ATOM     26  H19 MOL d          12.718  16.884  38.406  0.00  0.00     0.210 HD
ENDBRANCH   2  25
BRANCH   3  27
ATOM     27  OB3 MOL d          11.473  15.700  35.394  0.00  0.00    -0.390 OA
ATOM     28  H20 MOL d          11.542  14.752  35.399  0.00  0.00     0.210 HD
ENDBRANCH   3  27
BRANCH   5  29
ATOM     29  CB6 MOL d           6.999  15.602  37.891  0.00  0.00     0.198 C 
BRANCH  29  30
ATOM     30  OB6 MOL d           6.140  16.642  38.213  0.00  0.00    -0.398 OA
ATOM     31  H21 MOL d           5.413  16.652  37.601  0.00  0.00     0.209 HD
ENDBRANCH  29  30
ENDBRANCH   5  29
BRANCH   4  32
ATOM     32  OB4 MOL d           8.607  16.035  35.296  0.00  0.00    -0.348 OA
BRANCH  32  33
ATOM     33  CD1 MOL d           8.684  17.497  35.216  0.00  0.00     0.292 C 
ATOM     34  CD2 MOL d           7.354  18.201  34.727  0.00  0.00     0.204 C 
ATOM     35  CD3 MOL d           7.044  17.706  33.248  0.00  0.00     0.183 C 
ATOM     36  CD4 MOL d           8.223  18.140  32.321  0.00  0.00     0.183 C 
ATOM     37  CD5 MOL d           9.600  17.442  32.866  0.00  0.00     0.179 C 
ATOM     38  OD5 MOL d           9.814  17.874  34.288  0.00  0.00    -0.348 OA
BRANCH  34  39
ATOM     39  OD2 MOL d           6.307  17.825  35.645  0.00  0.00    -0.388 OA
ATOM     40  H29 MOL d           5.526  17.594  35.156  0.00  0.00     0.210 HD
ENDBRANCH  34  39
BRANCH  35  41
ATOM     41  OD3 MOL d           5.867  18.322  32.788  0.00  0.00    -0.390 OA
ATOM     42  H30 MOL d           6.026  19.250  32.661  0.00  0.00     0.210 HD
ENDBRANCH  35  41
BRANCH  36  43
ATOM     43  OD4 MOL d           7.983  17.699  30.940  0.00  0.00    -0.385 OA
ATOM     44  CD7 MOL d           7.870  18.777  29.972  0.00  0.00     0.202 C 
ENDBRANCH  36  43
BRANCH  37  45
ATOM     45  CD6 MOL d          10.820  17.865  31.994  0.00  0.00     0.198 C 
BRANCH  45  46
ATOM     46  OD6 MOL d          10.929  19.289  31.892  0.00  0.00    -0.398 OA
ATOM     47  H31 MOL d          10.060  19.673  31.903  0.00  0.00     0.209 HD
ENDBRANCH  45  46
ENDBRANCH  37  45
ENDBRANCH  32  33
ENDBRANCH   4  32
TORSDOF 18
ENDMDL
MODEL 10
REMARK VINA RESULT:      -6.3      1.919      2.629
REMARK  18 active torsions:
REMARK  status: ('A' for Active; 'I' for Inactive)
REMARK    1  A    between atoms: NA1_2  and  OA7_3 
REMARK    2  A    between atoms: CA2_4  and  OA2_5 
REMARK    3  A    between atoms: CA3_6  and  OA3_7 
REMARK    4  A    between atoms: CA4_8  and  OA4_9 
REMARK    5  A    between atoms: OA4_9  and  CB1_14 
REMARK    6  A    between atoms: CA5_10  and  CA6_12 
REMARK    7  A    between atoms: CA6_12  and  OA6_13 
REMARK    8  A    between atoms: CB2_15  and  OB2_20 
REMARK    9  A    between atoms: CB3_16  and  OB3_21 
REMARK   10  A    between atoms: CB4_17  and  OB4_22 
REMARK   11  A    between atoms: CB5_18  and  CB6_19 
REMARK   12  A    between atoms: CB6_19  and  OB6_24 
REMARK   13  A    between atoms: OB4_22  and  CD1_25 
REMARK   14  A    between atoms: CD2_26  and  OD2_31 
REMARK   15  A    between atoms: CD3_27  and  OD3_32 
REMARK   16  A    between atoms: CD4_28  and  OD4_33 
REMARK   17  A    between atoms: CD5_29  and  CD6_30 
REMARK   18  A    between atoms: CD6_30  and  OD6_35 
ROOT
ATOM      1  CB1 MOL d          10.966  17.181  38.083  0.00  0.00     0.292 C 
ATOM      2  CB2 MOL d          10.258  16.517  36.808  0.00  0.00     0.204 C 
ATOM      3  CB3 MOL d          10.951  15.180  36.356  0.00  0.00     0.183 C 
ATOM      4  CB4 MOL d          12.440  15.522  36.023  0.00  0.00     0.187 C 
ATOM      5  CB5 MOL d          13.133  16.107  37.422  0.00  0.00     0.180 C 
ATOM      6  OB5 MOL d          12.419  17.341  37.825  0.00  0.00    -0.348 OA
ENDROOT
BRANCH   1   7
ATOM      7  OA4 MOL d          10.700  16.359  39.211  0.00  0.00    -0.348 OA
BRANCH   7   8
ATOM      8  CA4 MOL d          10.834  16.990  40.369  0.00  0.00     0.181 C 
ATOM      9  CA3 MOL d           9.434  17.060  41.082  0.00  0.00     0.185 C 
ATOM     10  CA2 MOL d           9.622  17.307  42.621  0.00  0.00     0.220 C 
ATOM     11  CA1 MOL d          10.551  16.214  43.184  0.00  0.00     0.159 C 
ATOM     12  NA1 MOL d          10.332  15.771  44.413  0.00  0.00    -0.120 NA
ATOM     13  NA5 MOL d          11.641  15.699  42.416  0.00  0.00    -0.365 N 
ATOM     14  CA5 MOL d          11.866  16.127  41.023  0.00  0.00     0.138 C 
ATOM     15  H8  MOL d          12.283  15.016  42.845  0.00  0.00     0.161 HD
BRANCH   9  16
ATOM     16  OA3 MOL d           8.646  17.997  40.571  0.00  0.00    -0.390 OA
ATOM     17  H5  MOL d           8.562  17.862  39.634  0.00  0.00     0.210 HD
ENDBRANCH   9  16
BRANCH  10  18
ATOM     18  OA2 MOL d           8.477  17.399  43.315  0.00  0.00    -0.385 OA
ATOM     19  H3  MOL d           7.820  16.840  42.916  0.00  0.00     0.210 HD
ENDBRANCH  10  18
BRANCH  12  20
ATOM     20  OA7 MOL d          11.139  14.831  44.876  0.00  0.00    -0.265 OA
ATOM     21  H1  MOL d          10.887  14.608  45.764  0.00  0.00     0.247 HD
ENDBRANCH  12  20
BRANCH  14  22
ATOM     22  CA6 MOL d          13.223  16.902  41.036  0.00  0.00     0.191 C 
BRANCH  22  23
ATOM     23  OA6 MOL d          13.051  18.192  40.604  0.00  0.00    -0.399 OA
ATOM     24  H11 MOL d          13.481  18.787  41.208  0.00  0.00     0.209 HD
ENDBRANCH  22  23
ENDBRANCH  14  22
ENDBRANCH   7   8
ENDBRANCH   1   7
BRANCH   2  25
ATOM     25  OB2 MOL d           8.859  16.328  37.127  0.00  0.00    -0.388 OA
ATOM     26  H19 MOL d           8.777  16.044  38.030  0.00  0.00     0.210 HD
ENDBRANCH   2  25
BRANCH   3  27
ATOM     27  OB3 MOL d          10.258  14.674  35.188  0.00  0.00    -0.390 OA
ATOM     28  H20 MOL d           9.834  13.852  35.405  0.00  0.00     0.210 HD
ENDBRANCH   3  27
BRANCH   5  29
ATOM     29  CB6 MOL d          14.592  16.478  37.243  0.00  0.00     0.198 C 
BRANCH  29  30
ATOM     30  OB6 MOL d          15.408  15.374  37.442  0.00  0.00    -0.398 OA
ATOM     31  H21 MOL d          15.216  14.717  36.782  0.00  0.00     0.209 HD
ENDBRANCH  29  30
ENDBRANCH   5  29
BRANCH   4  32
ATOM     32  OB4 MOL d          13.095  14.336  35.605  0.00  0.00    -0.348 OA
BRANCH  32  33
ATOM     33  CD1 MOL d          13.661  14.486  34.260  0.00  0.00     0.292 C 
ATOM     34  CD2 MOL d          13.293  13.320  33.257  0.00  0.00     0.204 C 
ATOM     35  CD3 MOL d          13.896  11.964  33.828  0.00  0.00     0.183 C 
ATOM     36  CD4 MOL d          15.450  12.104  33.902  0.00  0.00     0.183 C 
ATOM     37  CD5 MOL d          15.816  13.344  34.906  0.00  0.00     0.179 C 
ATOM     38  OD5 MOL d          15.163  14.587  34.374  0.00  0.00    -0.348 OA
BRANCH  34  39
ATOM     39  OD2 MOL d          11.855  13.267  33.169  0.00  0.00    -0.388 OA
ATOM     40  H29 MOL d          11.597  12.514  32.650  0.00  0.00     0.210 HD
ENDBRANCH  34  39
BRANCH  35  41
ATOM     41  OD3 MOL d          13.587  10.911  32.950  0.00  0.00    -0.390 OA
ATOM     42  H30 MOL d          13.411  11.262  32.085  0.00  0.00     0.210 HD
ENDBRANCH  35  41
BRANCH  36  43
ATOM     43  OD4 MOL d          16.055  10.874  34.429  0.00  0.00    -0.385 OA
ATOM     44  CD7 MOL d          16.962  10.204  33.513  0.00  0.00     0.202 C 
ENDBRANCH  36  43
BRANCH  37  45
ATOM     45  CD6 MOL d          17.357  13.551  34.996  0.00  0.00     0.198 C 
BRANCH  45  46
ATOM     46  OD6 MOL d          17.940  12.738  36.021  0.00  0.00    -0.398 OA
ATOM     47  H31 MOL d          18.574  13.251  36.508  0.00  0.00     0.209 HD
ENDBRANCH  45  46
ENDBRANCH  37  45
ENDBRANCH  32  33
ENDBRANCH   4  32
TORSDOF 18
ENDMDL
