MODEL 1
REMARK VINA RESULT:      -4.6      0.000      0.000
REMARK  3 active torsions:
REMARK  status: ('A' for Active; 'I' for Inactive)
REMARK    1  A    between atoms: C1'_1  and  C2_7 
REMARK    2  A    between atoms: C2_7  and  C1_8 
REMARK    3  A    between atoms: C1_8  and  N_9 
ROOT
ATOM      1  C1' PEA d          45.813  20.138  50.868  0.00  0.00    -0.057 A 
ATOM      2  C6' PEA d          46.600  20.962  51.655  0.00  0.00     0.007 A 
ATOM      3  C5' PEA d          46.914  22.265  51.304  0.00  0.00     0.001 A 
ATOM      4  C4' PEA d          46.451  22.800  50.112  0.00  0.00     0.000 A 
ATOM      5  C3' PEA d          45.677  21.983  49.308  0.00  0.00     0.001 A 
ATOM      6  C2' PEA d          45.371  20.695  49.678  0.00  0.00     0.007 A 
ENDROOT
BRANCH   1   7
ATOM      7  C2  PEA d          45.495  18.825  51.276  0.00  0.00     0.065 C 
BRANCH   7   8
ATOM      8  C1  PEA d          45.568  18.673  52.826  0.00  0.00     0.234 C 
BRANCH   8   9
ATOM      9  N   PEA d          45.932  17.279  53.225  0.00  0.00    -0.079 N 
ATOM     10  H10 PEA d          46.820  17.286  53.701  0.00  0.00     0.274 HD
ATOM     11  H11 PEA d          45.997  16.700  52.403  0.00  0.00     0.274 HD
ATOM     12  H12 PEA d          45.224  16.910  53.841  0.00  0.00     0.274 HD
ENDBRANCH   8   9
ENDBRANCH   7   8
ENDBRANCH   1   7
TORSDOF 3
ENDMDL
MODEL 2
REMARK VINA RESULT:      -4.5      0.200      1.581
REMARK  3 active torsions:
REMARK  status: ('A' for Active; 'I' for Inactive)
REMARK    1  A    between atoms: C1'_1  and  C2_7 
REMARK    2  A    between atoms: C2_7  and  C1_8 
REMARK    3  A    between atoms: C1_8  and  N_9 
ROOT
ATOM      1  C1' PEA d          45.861  20.247  50.761  0.00  0.00    -0.057 A 
ATOM      2  C6' PEA d          45.347  20.845  49.624  0.00  0.00     0.007 A 
ATOM      3  C5' PEA d          45.623  22.156  49.269  0.00  0.00     0.001 A 
ATOM      4  C4' PEA d          46.437  22.941  50.072  0.00  0.00     0.000 A 
ATOM      5  C3' PEA d          46.945  22.362  51.220  0.00  0.00     0.001 A 
ATOM      6  C2' PEA d          46.663  21.057  51.550  0.00  0.00     0.007 A 
ENDROOT
BRANCH   1   7
ATOM      7  C2  PEA d          45.575  18.900  51.070  0.00  0.00     0.065 C 
BRANCH   7   8
ATOM      8  C1  PEA d          45.519  18.666  52.611  0.00  0.00     0.234 C 
BRANCH   8   9
ATOM      9  N   PEA d          45.753  17.231  52.957  0.00  0.00    -0.079 N 
ATOM     10  H10 PEA d          46.410  16.831  52.305  0.00  0.00     0.274 HD
ATOM     11  H11 PEA d          44.883  16.727  52.908  0.00  0.00     0.274 HD
ATOM     12  H12 PEA d          46.127  17.168  53.891  0.00  0.00     0.274 HD
ENDBRANCH   8   9
ENDBRANCH   7   8
ENDBRANCH   1   7
TORSDOF 3
ENDMDL
MODEL 3
REMARK VINA RESULT:      -4.3      2.541      4.167
REMARK  3 active torsions:
REMARK  status: ('A' for Active; 'I' for Inactive)
REMARK    1  A    between atoms: C1'_1  and  C2_7 
REMARK    2  A    between atoms: C2_7  and  C1_8 
REMARK    3  A    between atoms: C1_8  and  N_9 
ROOT
ATOM      1  C1' PEA d          45.630  21.013  50.259  0.00  0.00    -0.057 A 
ATOM      2  C6' PEA d          45.382  19.680  49.983  0.00  0.00     0.007 A 
ATOM      3  C5' PEA d          45.370  18.696  50.957  0.00  0.00     0.001 A 
ATOM      4  C4' PEA d          45.630  19.019  52.281  0.00  0.00     0.000 A 
ATOM      5  C3' PEA d          45.896  20.345  52.570  0.00  0.00     0.001 A 
ATOM      6  C2' PEA d          45.895  21.307  51.588  0.00  0.00     0.007 A 
ENDROOT
BRANCH   1   7
ATOM      7  C2  PEA d          45.606  21.988  49.239  0.00  0.00     0.065 C 
BRANCH   7   8
ATOM      8  C1  PEA d          44.451  23.013  49.453  0.00  0.00     0.234 C 
BRANCH   8   9
ATOM      9  N   PEA d          43.118  22.414  49.139  0.00  0.00    -0.079 N 
ATOM     10  H10 PEA d          43.112  22.089  48.185  0.00  0.00     0.274 HD
ATOM     11  H11 PEA d          42.400  23.109  49.262  0.00  0.00     0.274 HD
ATOM     12  H12 PEA d          42.944  21.637  49.759  0.00  0.00     0.274 HD
ENDBRANCH   8   9
ENDBRANCH   7   8
ENDBRANCH   1   7
TORSDOF 3
ENDMDL
MODEL 4
REMARK VINA RESULT:      -4.3      2.581      3.950
REMARK  3 active torsions:
REMARK  status: ('A' for Active; 'I' for Inactive)
REMARK    1  A    between atoms: C1'_1  and  C2_7 
REMARK    2  A    between atoms: C2_7  and  C1_8 
REMARK    3  A    between atoms: C1_8  and  N_9 
ROOT
ATOM      1  C1' PEA d          45.596  21.110  50.241  0.00  0.00    -0.057 A 
ATOM      2  C6' PEA d          45.823  21.398  51.575  0.00  0.00     0.007 A 
ATOM      3  C5' PEA d          45.879  20.425  52.560  0.00  0.00     0.001 A 
ATOM      4  C4' PEA d          45.689  19.090  52.235  0.00  0.00     0.000 A 
ATOM      5  C3' PEA d          45.445  18.788  50.908  0.00  0.00     0.001 A 
ATOM      6  C2' PEA d          45.400  19.769  49.946  0.00  0.00     0.007 A 
ENDROOT
BRANCH   1   7
ATOM      7  C2  PEA d          45.573  22.130  49.267  0.00  0.00     0.065 C 
BRANCH   7   8
ATOM      8  C1  PEA d          44.382  23.111  49.491  0.00  0.00     0.234 C 
BRANCH   8   9
ATOM      9  N   PEA d          43.080  22.493  49.096  0.00  0.00    -0.079 N 
ATOM     10  H10 PEA d          43.172  22.070  48.186  0.00  0.00     0.274 HD
ATOM     11  H11 PEA d          42.367  23.205  49.064  0.00  0.00     0.274 HD
ATOM     12  H12 PEA d          42.823  21.789  49.770  0.00  0.00     0.274 HD
ENDBRANCH   8   9
ENDBRANCH   7   8
ENDBRANCH   1   7
TORSDOF 3
ENDMDL
MODEL 5
REMARK VINA RESULT:      -3.9      2.919      4.276
REMARK  3 active torsions:
REMARK  status: ('A' for Active; 'I' for Inactive)
REMARK    1  A    between atoms: C1'_1  and  C2_7 
REMARK    2  A    between atoms: C2_7  and  C1_8 
REMARK    3  A    between atoms: C1_8  and  N_9 
ROOT
ATOM      1  C1' PEA d          45.078  21.588  51.686  0.00  0.00    -0.057 A 
ATOM      2  C6' PEA d          44.446  20.900  50.665  0.00  0.00     0.007 A 
ATOM      3  C5' PEA d          44.484  19.520  50.548  0.00  0.00     0.001 A 
ATOM      4  C4' PEA d          45.190  18.759  51.468  0.00  0.00     0.000 A 
ATOM      5  C3' PEA d          45.840  19.434  52.484  0.00  0.00     0.001 A 
ATOM      6  C2' PEA d          45.783  20.804  52.586  0.00  0.00     0.007 A 
ENDROOT
BRANCH   1   7
ATOM      7  C2  PEA d          44.991  22.994  51.782  0.00  0.00     0.065 C 
BRANCH   7   8
ATOM      8  C1  PEA d          43.515  23.467  51.948  0.00  0.00     0.234 C 
BRANCH   8   9
ATOM      9  N   PEA d          43.219  23.863  53.359  0.00  0.00    -0.079 N 
ATOM     10  H10 PEA d          43.034  23.038  53.907  0.00  0.00     0.274 HD
ATOM     11  H11 PEA d          42.413  24.466  53.377  0.00  0.00     0.274 HD
ATOM     12  H12 PEA d          44.013  24.350  53.744  0.00  0.00     0.274 HD
ENDBRANCH   8   9
ENDBRANCH   7   8
ENDBRANCH   1   7
TORSDOF 3
ENDMDL
MODEL 6
REMARK VINA RESULT:      -3.9      2.147      3.467
REMARK  3 active torsions:
REMARK  status: ('A' for Active; 'I' for Inactive)
REMARK    1  A    between atoms: C1'_1  and  C2_7 
REMARK    2  A    between atoms: C2_7  and  C1_8 
REMARK    3  A    between atoms: C1_8  and  N_9 
ROOT
ATOM      1  C1' PEA d          46.210  21.115  51.240  0.00  0.00    -0.057 A 
ATOM      2  C6' PEA d          46.377  19.925  51.926  0.00  0.00     0.007 A 
ATOM      3  C5' PEA d          45.552  18.827  51.747  0.00  0.00     0.001 A 
ATOM      4  C4' PEA d          44.488  18.890  50.859  0.00  0.00     0.000 A 
ATOM      5  C3' PEA d          44.297  20.078  50.179  0.00  0.00     0.001 A 
ATOM      6  C2' PEA d          45.133  21.153  50.367  0.00  0.00     0.007 A 
ENDROOT
BRANCH   1   7
ATOM      7  C2  PEA d          47.091  22.201  51.433  0.00  0.00     0.065 C 
BRANCH   7   8
ATOM      8  C1  PEA d          47.177  22.608  52.936  0.00  0.00     0.234 C 
BRANCH   8   9
ATOM      9  N   PEA d          45.844  23.023  53.470  0.00  0.00    -0.079 N 
ATOM     10  H10 PEA d          45.271  22.206  53.614  0.00  0.00     0.274 HD
ATOM     11  H11 PEA d          45.394  23.636  52.810  0.00  0.00     0.274 HD
ATOM     12  H12 PEA d          45.969  23.504  54.347  0.00  0.00     0.274 HD
ENDBRANCH   8   9
ENDBRANCH   7   8
ENDBRANCH   1   7
TORSDOF 3
ENDMDL
MODEL 7
REMARK VINA RESULT:      -3.8      1.388      2.325
REMARK  3 active torsions:
REMARK  status: ('A' for Active; 'I' for Inactive)
REMARK    1  A    between atoms: C1'_1  and  C2_7 
REMARK    2  A    between atoms: C2_7  and  C1_8 
REMARK    3  A    between atoms: C1_8  and  N_9 
ROOT
ATOM      1  C1' PEA d          45.619  21.272  51.469  0.00  0.00    -0.057 A 
ATOM      2  C6' PEA d          46.491  21.961  50.645  0.00  0.00     0.007 A 
ATOM      3  C5' PEA d          47.354  22.940  51.109  0.00  0.00     0.001 A 
ATOM      4  C4' PEA d          47.365  23.284  52.453  0.00  0.00     0.000 A 
ATOM      5  C3' PEA d          46.487  22.614  53.286  0.00  0.00     0.001 A 
ATOM      6  C2' PEA d          45.644  21.641  52.805  0.00  0.00     0.007 A 
ENDROOT
BRANCH   1   7
ATOM      7  C2  PEA d          44.775  20.263  50.958  0.00  0.00     0.065 C 
BRANCH   7   8
ATOM      8  C1  PEA d          45.438  18.856  51.057  0.00  0.00     0.234 C 
BRANCH   8   9
ATOM      9  N   PEA d          44.577  17.894  51.810  0.00  0.00    -0.079 N 
ATOM     10  H10 PEA d          43.618  18.006  51.522  0.00  0.00     0.274 HD
ATOM     11  H11 PEA d          44.654  18.076  52.798  0.00  0.00     0.274 HD
ATOM     12  H12 PEA d          44.878  16.951  51.618  0.00  0.00     0.274 HD
ENDBRANCH   8   9
ENDBRANCH   7   8
ENDBRANCH   1   7
TORSDOF 3
ENDMDL
MODEL 8
REMARK VINA RESULT:      -3.7      2.561      3.669
REMARK  3 active torsions:
REMARK  status: ('A' for Active; 'I' for Inactive)
REMARK    1  A    between atoms: C1'_1  and  C2_7 
REMARK    2  A    between atoms: C2_7  and  C1_8 
REMARK    3  A    between atoms: C1_8  and  N_9 
ROOT
ATOM      1  C1' PEA d          45.274  21.408  51.824  0.00  0.00    -0.057 A 
ATOM      2  C6' PEA d          45.760  20.333  52.548  0.00  0.00     0.007 A 
ATOM      3  C5' PEA d          45.558  19.015  52.172  0.00  0.00     0.001 A 
ATOM      4  C4' PEA d          44.828  18.718  51.032  0.00  0.00     0.000 A 
ATOM      5  C3' PEA d          44.321  19.781  50.307  0.00  0.00     0.001 A 
ATOM      6  C2' PEA d          44.540  21.081  50.695  0.00  0.00     0.007 A 
ENDROOT
BRANCH   1   7
ATOM      7  C2  PEA d          45.526  22.736  52.230  0.00  0.00     0.065 C 
BRANCH   7   8
ATOM      8  C1  PEA d          46.424  22.786  53.503  0.00  0.00     0.234 C 
BRANCH   8   9
ATOM      9  N   PEA d          47.806  23.259  53.183  0.00  0.00    -0.079 N 
ATOM     10  H10 PEA d          47.862  24.254  53.329  0.00  0.00     0.274 HD
ATOM     11  H11 PEA d          48.018  23.049  52.221  0.00  0.00     0.274 HD
ATOM     12  H12 PEA d          48.468  22.793  53.783  0.00  0.00     0.274 HD
ENDBRANCH   8   9
ENDBRANCH   7   8
ENDBRANCH   1   7
TORSDOF 3
ENDMDL
MODEL 9
REMARK VINA RESULT:      -3.7      1.635      2.259
REMARK  3 active torsions:
REMARK  status: ('A' for Active; 'I' for Inactive)
REMARK    1  A    between atoms: C1'_1  and  C2_7 
REMARK    2  A    between atoms: C2_7  and  C1_8 
REMARK    3  A    between atoms: C1_8  and  N_9 
ROOT
ATOM      1  C1' PEA d          44.869  21.339  50.466  0.00  0.00    -0.057 A 
ATOM      2  C6' PEA d          43.700  22.080  50.449  0.00  0.00     0.007 A 
ATOM      3  C5' PEA d          43.555  23.244  49.713  0.00  0.00     0.001 A 
ATOM      4  C4' PEA d          44.612  23.730  48.956  0.00  0.00     0.000 A 
ATOM      5  C3' PEA d          45.791  23.009  48.977  0.00  0.00     0.001 A 
ATOM      6  C2' PEA d          45.911  21.852  49.710  0.00  0.00     0.007 A 
ENDROOT
BRANCH   1   7
ATOM      7  C2  PEA d          44.965  20.143  51.210  0.00  0.00     0.065 C 
BRANCH   7   8
ATOM      8  C1  PEA d          46.428  19.874  51.676  0.00  0.00     0.234 C 
BRANCH   8   9
ATOM      9  N   PEA d          46.464  19.088  52.947  0.00  0.00    -0.079 N 
ATOM     10  H10 PEA d          46.195  19.682  53.716  0.00  0.00     0.274 HD
ATOM     11  H11 PEA d          47.397  18.741  53.101  0.00  0.00     0.274 HD
ATOM     12  H12 PEA d          45.823  18.313  52.882  0.00  0.00     0.274 HD
ENDBRANCH   8   9
ENDBRANCH   7   8
ENDBRANCH   1   7
TORSDOF 3
ENDMDL
MODEL 10
REMARK VINA RESULT:      -3.5      2.791      3.480
REMARK  3 active torsions:
REMARK  status: ('A' for Active; 'I' for Inactive)
REMARK    1  A    between atoms: C1'_1  and  C2_7 
REMARK    2  A    between atoms: C2_7  and  C1_8 
REMARK    3  A    between atoms: C1_8  and  N_9 
ROOT
ATOM      1  C1' PEA d          44.856  21.577  51.569  0.00  0.00    -0.057 A 
ATOM      2  C6' PEA d          44.030  22.555  51.043  0.00  0.00     0.007 A 
ATOM      3  C5' PEA d          43.997  23.854  51.523  0.00  0.00     0.001 A 
ATOM      4  C4' PEA d          44.803  24.228  52.588  0.00  0.00     0.000 A 
ATOM      5  C3' PEA d          45.622  23.256  53.135  0.00  0.00     0.001 A 
ATOM      6  C2' PEA d          45.644  21.975  52.639  0.00  0.00     0.007 A 
ENDROOT
BRANCH   1   7
ATOM      7  C2  PEA d          44.877  20.272  51.032  0.00  0.00     0.065 C 
BRANCH   7   8
ATOM      8  C1  PEA d          44.242  20.228  49.609  0.00  0.00     0.234 C 
BRANCH   8   9
ATOM      9  N   PEA d          45.284  20.092  48.547  0.00  0.00    -0.079 N 
ATOM     10  H10 PEA d          44.887  20.335  47.653  0.00  0.00     0.274 HD
ATOM     11  H11 PEA d          45.614  19.140  48.519  0.00  0.00     0.274 HD
ATOM     12  H12 PEA d          46.055  20.709  48.750  0.00  0.00     0.274 HD
ENDBRANCH   8   9
ENDBRANCH   7   8
ENDBRANCH   1   7
TORSDOF 3
ENDMDL
