MODEL 1
REMARK VINA RESULT:      -7.3      0.000      0.000
REMARK  8 active torsions:
REMARK  status: ('A' for Active; 'I' for Inactive)
REMARK    1  A    between atoms: C1_4  and  N_1 
REMARK    2  A    between atoms: C_2  and  C1_4 
REMARK    3  A    between atoms: C6_13  and  C_2 
REMARK    4  A    between atoms: C1_4  and  C2_5 
REMARK    5  A    between atoms: O3_8  and  C4_11 
REMARK    6  A    between atoms: C5_12  and  O3_8 
REMARK    7  A    between atoms: C7_14  and  C3_10 
REMARK    8  A    between atoms: C4_11  and  P_18 
ROOT
ATOM      1  O2  AT1 d          39.412   6.123   9.569  0.00  0.00    -0.214 OA
ATOM      2  N1  AT1 d          38.722   4.893   9.478  0.00  0.00    -0.102 NA
ATOM      3  C5  AT1 d          38.617   4.683   8.186  0.00  0.00     0.200 A 
ATOM      4  C6  AT1 d          39.207   5.713   7.385  0.00  0.00     0.032 A 
ATOM      5  C7  AT1 d          39.691   6.602   8.325  0.00  0.00     0.097 A 
ENDROOT
BRANCH   4   6
ATOM      6  C   AT1 d          39.191   5.665   5.886  0.00  0.00     0.089 C 
BRANCH   6   7
ATOM      7  C1  AT1 d          40.249   4.761   5.248  0.00  0.00     0.287 C 
BRANCH   7   8
ATOM      8  N   AT1 d          41.663   5.338   5.416  0.00  0.00    -0.065 N 
ATOM      9  H1  AT1 d          42.291   4.608   5.712  0.00  0.00     0.275 HD
ATOM     10  H2  AT1 d          41.647   6.069   6.109  0.00  0.00     0.275 HD
ATOM     11  H3  AT1 d          41.978   5.716   4.536  0.00  0.00     0.275 HD
ENDBRANCH   7   8
BRANCH   7  12
ATOM     12  C2  AT1 d          39.978   4.560   3.704  0.00  0.00     0.204 C 
ATOM     13  O   AT1 d          40.982   4.607   2.930  0.00  0.00    -0.646 OA
ATOM     14  O1  AT1 d          38.793   4.363   3.347  0.00  0.00    -0.646 OA
ENDBRANCH   7  12
ENDBRANCH   6   7
ENDBRANCH   4   6
BRANCH   3  15
ATOM     15  O3  AT1 d          38.007   3.618   7.632  0.00  0.00    -0.319 OA
BRANCH  15  16
ATOM     16  C4  AT1 d          38.073   2.346   8.359  0.00  0.00     0.322 C 
BRANCH  16  17
ATOM     17  P   AT1 d          36.380   1.769   8.641  0.00  0.00     0.284 P 
ATOM     18  O4  AT1 d          35.580   2.868   9.241  0.00  0.00    -0.638 OA
ATOM     19  O5  AT1 d          35.922   1.306   7.286  0.00  0.00    -0.638 OA
ATOM     20  O6  AT1 d          36.500   0.524   9.583  0.00  0.00    -0.638 OA
ENDBRANCH  16  17
ENDBRANCH  15  16
ENDBRANCH   3  15
BRANCH   5  21
ATOM     21  C3  AT1 d          40.426   7.946   8.360  0.00  0.00     0.001 C 
ATOM     22  C9  AT1 d          39.496   8.966   9.062  0.00  0.00     0.021 C 
ATOM     23  C10 AT1 d          41.718   7.823   9.162  0.00  0.00     0.021 C 
ATOM     24  C11 AT1 d          40.755   8.497   6.979  0.00  0.00     0.021 C 
ENDBRANCH   5  21
TORSDOF 8
ENDMDL
MODEL 2
REMARK VINA RESULT:      -6.7      3.105      5.470
REMARK  8 active torsions:
REMARK  status: ('A' for Active; 'I' for Inactive)
REMARK    1  A    between atoms: C1_4  and  N_1 
REMARK    2  A    between atoms: C_2  and  C1_4 
REMARK    3  A    between atoms: C6_13  and  C_2 
REMARK    4  A    between atoms: C1_4  and  C2_5 
REMARK    5  A    between atoms: O3_8  and  C4_11 
REMARK    6  A    between atoms: C5_12  and  O3_8 
REMARK    7  A    between atoms: C7_14  and  C3_10 
REMARK    8  A    between atoms: C4_11  and  P_18 
ROOT
ATOM      1  O2  AT1 d          36.803   5.329   8.066  0.00  0.00    -0.214 OA
ATOM      2  N1  AT1 d          37.939   5.864   8.715  0.00  0.00    -0.102 NA
ATOM      3  C5  AT1 d          38.801   6.055   7.744  0.00  0.00     0.200 A 
ATOM      4  C6  AT1 d          38.306   5.677   6.453  0.00  0.00     0.032 A 
ATOM      5  C7  AT1 d          37.033   5.219   6.728  0.00  0.00     0.097 A 
ENDROOT
BRANCH   4   6
ATOM      6  C   AT1 d          39.135   5.812   5.211  0.00  0.00     0.089 C 
BRANCH   6   7
ATOM      7  C1  AT1 d          40.208   4.736   5.019  0.00  0.00     0.287 C 
BRANCH   7   8
ATOM      8  N   AT1 d          41.616   5.287   5.290  0.00  0.00    -0.065 N 
ATOM      9  H1  AT1 d          41.545   6.189   5.735  0.00  0.00     0.275 HD
ATOM     10  H2  AT1 d          42.114   5.381   4.419  0.00  0.00     0.275 HD
ATOM     11  H3  AT1 d          42.114   4.653   5.895  0.00  0.00     0.275 HD
ENDBRANCH   7   8
BRANCH   7  12
ATOM     12  C2  AT1 d          40.180   4.153   3.551  0.00  0.00     0.204 C 
ATOM     13  O   AT1 d          39.697   2.989   3.401  0.00  0.00    -0.646 OA
ATOM     14  O1  AT1 d          40.630   4.877   2.632  0.00  0.00    -0.646 OA
ENDBRANCH   7  12
ENDBRANCH   6   7
ENDBRANCH   4   6
BRANCH   3  15
ATOM     15  O3  AT1 d          40.044   6.545   7.909  0.00  0.00    -0.319 OA
BRANCH  15  16
ATOM     16  C4  AT1 d          40.325   7.273   9.150  0.00  0.00     0.322 C 
BRANCH  16  17
ATOM     17  P   AT1 d          41.302   8.740   8.735  0.00  0.00     0.284 P 
ATOM     18  O4  AT1 d          42.748   8.396   8.779  0.00  0.00    -0.638 OA
ATOM     19  O5  AT1 d          40.782   9.155   7.385  0.00  0.00    -0.638 OA
ATOM     20  O6  AT1 d          40.907   9.833   9.783  0.00  0.00    -0.638 OA
ENDBRANCH  16  17
ENDBRANCH  15  16
ENDBRANCH   3  15
BRANCH   5  21
ATOM     21  C3  AT1 d          35.839   4.626   5.972  0.00  0.00     0.001 C 
ATOM     22  C9  AT1 d          35.380   5.677   4.932  0.00  0.00     0.021 C 
ATOM     23  C10 AT1 d          36.253   3.354   5.239  0.00  0.00     0.021 C 
ATOM     24  C11 AT1 d          34.647   4.312   6.866  0.00  0.00     0.021 C 
ENDBRANCH   5  21
TORSDOF 8
ENDMDL
MODEL 3
REMARK VINA RESULT:      -6.7      2.857      5.450
REMARK  8 active torsions:
REMARK  status: ('A' for Active; 'I' for Inactive)
REMARK    1  A    between atoms: C1_4  and  N_1 
REMARK    2  A    between atoms: C_2  and  C1_4 
REMARK    3  A    between atoms: C6_13  and  C_2 
REMARK    4  A    between atoms: C1_4  and  C2_5 
REMARK    5  A    between atoms: O3_8  and  C4_11 
REMARK    6  A    between atoms: C5_12  and  O3_8 
REMARK    7  A    between atoms: C7_14  and  C3_10 
REMARK    8  A    between atoms: C4_11  and  P_18 
ROOT
ATOM      1  O2  AT1 d          37.179   5.005   8.356  0.00  0.00    -0.214 OA
ATOM      2  N1  AT1 d          37.844   4.817   7.123  0.00  0.00    -0.102 NA
ATOM      3  C5  AT1 d          38.989   5.438   7.281  0.00  0.00     0.200 A 
ATOM      4  C6  AT1 d          39.143   6.043   8.570  0.00  0.00     0.032 A 
ATOM      5  C7  AT1 d          37.955   5.736   9.204  0.00  0.00     0.097 A 
ENDROOT
BRANCH   4   6
ATOM      6  C   AT1 d          40.377   6.805   8.951  0.00  0.00     0.089 C 
BRANCH   6   7
ATOM      7  C1  AT1 d          40.314   8.316   8.717  0.00  0.00     0.287 C 
BRANCH   7   8
ATOM      8  N   AT1 d          40.308   8.658   7.220  0.00  0.00    -0.065 N 
ATOM      9  H1  AT1 d          39.431   8.371   6.813  0.00  0.00     0.275 HD
ATOM     10  H2  AT1 d          41.065   8.174   6.762  0.00  0.00     0.275 HD
ATOM     11  H3  AT1 d          40.424   9.652   7.101  0.00  0.00     0.275 HD
ENDBRANCH   7   8
BRANCH   7  12
ATOM     12  C2  AT1 d          41.541   9.053   9.387  0.00  0.00     0.204 C 
ATOM     13  O   AT1 d          41.290  10.103  10.055  0.00  0.00    -0.646 OA
ATOM     14  O1  AT1 d          42.677   8.552   9.220  0.00  0.00    -0.646 OA
ENDBRANCH   7  12
ENDBRANCH   6   7
ENDBRANCH   4   6
BRANCH   3  15
ATOM     15  O3  AT1 d          39.946   5.529   6.338  0.00  0.00    -0.319 OA
BRANCH  15  16
ATOM     16  C4  AT1 d          39.525   5.885   4.979  0.00  0.00     0.322 C 
BRANCH  16  17
ATOM     17  P   AT1 d          39.817   4.457   3.906  0.00  0.00     0.284 P 
ATOM     18  O4  AT1 d          40.400   3.350   4.708  0.00  0.00    -0.638 OA
ATOM     19  O5  AT1 d          38.469   4.173   3.302  0.00  0.00    -0.638 OA
ATOM     20  O6  AT1 d          40.778   4.956   2.775  0.00  0.00    -0.638 OA
ENDBRANCH  16  17
ENDBRANCH  15  16
ENDBRANCH   3  15
BRANCH   5  21
ATOM     21  C3  AT1 d          37.278   5.987  10.555  0.00  0.00     0.001 C 
ATOM     22  C9  AT1 d          37.253   7.518  10.785  0.00  0.00     0.021 C 
ATOM     23  C10 AT1 d          35.843   5.468  10.535  0.00  0.00     0.021 C 
ATOM     24  C11 AT1 d          38.011   5.356  11.731  0.00  0.00     0.021 C 
ENDBRANCH   5  21
TORSDOF 8
ENDMDL
MODEL 4
REMARK VINA RESULT:      -6.5      2.724      5.471
REMARK  8 active torsions:
REMARK  status: ('A' for Active; 'I' for Inactive)
REMARK    1  A    between atoms: C1_4  and  N_1 
REMARK    2  A    between atoms: C_2  and  C1_4 
REMARK    3  A    between atoms: C6_13  and  C_2 
REMARK    4  A    between atoms: C1_4  and  C2_5 
REMARK    5  A    between atoms: O3_8  and  C4_11 
REMARK    6  A    between atoms: C5_12  and  O3_8 
REMARK    7  A    between atoms: C7_14  and  C3_10 
REMARK    8  A    between atoms: C4_11  and  P_18 
ROOT
ATOM      1  O2  AT1 d          37.644   4.080   9.095  0.00  0.00    -0.214 OA
ATOM      2  N1  AT1 d          38.579   5.083   9.440  0.00  0.00    -0.102 NA
ATOM      3  C5  AT1 d          38.973   5.562   8.284  0.00  0.00     0.200 A 
ATOM      4  C6  AT1 d          38.347   4.936   7.157  0.00  0.00     0.032 A 
ATOM      5  C7  AT1 d          37.517   3.999   7.741  0.00  0.00     0.097 A 
ENDROOT
BRANCH   4   6
ATOM      6  C   AT1 d          38.662   5.336   5.747  0.00  0.00     0.089 C 
BRANCH   6   7
ATOM      7  C1  AT1 d          40.031   4.888   5.228  0.00  0.00     0.287 C 
BRANCH   7   8
ATOM      8  N   AT1 d          41.105   5.961   5.465  0.00  0.00    -0.065 N 
ATOM      9  H1  AT1 d          42.015   5.527   5.483  0.00  0.00     0.275 HD
ATOM     10  H2  AT1 d          40.933   6.418   6.347  0.00  0.00     0.275 HD
ATOM     11  H3  AT1 d          41.071   6.640   4.721  0.00  0.00     0.275 HD
ENDBRANCH   7   8
BRANCH   7  12
ATOM     12  C2  AT1 d          39.983   4.571   3.680  0.00  0.00     0.204 C 
ATOM     13  O   AT1 d          41.077   4.644   3.042  0.00  0.00    -0.646 OA
ATOM     14  O1  AT1 d          38.872   4.263   3.188  0.00  0.00    -0.646 OA
ENDBRANCH   7  12
ENDBRANCH   6   7
ENDBRANCH   4   6
BRANCH   3  15
ATOM     15  O3  AT1 d          39.885   6.541   8.132  0.00  0.00    -0.319 OA
BRANCH  15  16
ATOM     16  C4  AT1 d          40.527   7.061   9.343  0.00  0.00     0.322 C 
BRANCH  16  17
ATOM     17  P   AT1 d          41.371   8.605   8.917  0.00  0.00     0.284 P 
ATOM     18  O4  AT1 d          40.764   9.724   9.685  0.00  0.00    -0.638 OA
ATOM     19  O5  AT1 d          42.817   8.327   9.222  0.00  0.00    -0.638 OA
ATOM     20  O6  AT1 d          41.207   8.773   7.370  0.00  0.00    -0.638 OA
ENDBRANCH  16  17
ENDBRANCH  15  16
ENDBRANCH   3  15
BRANCH   5  21
ATOM     21  C3  AT1 d          36.527   2.914   7.305  0.00  0.00     0.001 C 
ATOM     22  C9  AT1 d          35.224   3.624   6.866  0.00  0.00     0.021 C 
ATOM     23  C10 AT1 d          37.085   2.131   6.120  0.00  0.00     0.021 C 
ATOM     24  C11 AT1 d          36.168   1.936   8.415  0.00  0.00     0.021 C 
ENDBRANCH   5  21
TORSDOF 8
ENDMDL
MODEL 5
REMARK VINA RESULT:      -6.5      2.496      5.472
REMARK  8 active torsions:
REMARK  status: ('A' for Active; 'I' for Inactive)
REMARK    1  A    between atoms: C1_4  and  N_1 
REMARK    2  A    between atoms: C_2  and  C1_4 
REMARK    3  A    between atoms: C6_13  and  C_2 
REMARK    4  A    between atoms: C1_4  and  C2_5 
REMARK    5  A    between atoms: O3_8  and  C4_11 
REMARK    6  A    between atoms: C5_12  and  O3_8 
REMARK    7  A    between atoms: C7_14  and  C3_10 
REMARK    8  A    between atoms: C4_11  and  P_18 
ROOT
ATOM      1  O2  AT1 d          38.955   6.765   9.205  0.00  0.00    -0.214 OA
ATOM      2  N1  AT1 d          39.672   6.511   8.013  0.00  0.00    -0.102 NA
ATOM      3  C5  AT1 d          39.260   5.322   7.641  0.00  0.00     0.200 A 
ATOM      4  C6  AT1 d          38.287   4.747   8.522  0.00  0.00     0.032 A 
ATOM      5  C7  AT1 d          38.142   5.713   9.499  0.00  0.00     0.097 A 
ENDROOT
BRANCH   4   6
ATOM      6  C   AT1 d          37.692   3.393   8.278  0.00  0.00     0.089 C 
BRANCH   6   7
ATOM      7  C1  AT1 d          37.731   2.435   9.471  0.00  0.00     0.287 C 
BRANCH   7   8
ATOM      8  N   AT1 d          38.905   1.450   9.367  0.00  0.00    -0.065 N 
ATOM      9  H1  AT1 d          39.232   1.415   8.414  0.00  0.00     0.275 HD
ATOM     10  H2  AT1 d          38.600   0.532   9.651  0.00  0.00     0.275 HD
ATOM     11  H3  AT1 d          39.655   1.756   9.968  0.00  0.00     0.275 HD
ENDBRANCH   7   8
BRANCH   7  12
ATOM     12  C2  AT1 d          36.394   1.600   9.580  0.00  0.00     0.204 C 
ATOM     13  O   AT1 d          35.314   2.253   9.717  0.00  0.00    -0.646 OA
ATOM     14  O1  AT1 d          36.485   0.351   9.521  0.00  0.00    -0.646 OA
ENDBRANCH   7  12
ENDBRANCH   6   7
ENDBRANCH   4   6
BRANCH   3  15
ATOM     15  O3  AT1 d          39.696   4.669   6.547  0.00  0.00    -0.319 OA
BRANCH  15  16
ATOM     16  C4  AT1 d          39.534   5.336   5.251  0.00  0.00     0.322 C 
BRANCH  16  17
ATOM     17  P   AT1 d          39.797   4.108   3.947  0.00  0.00     0.284 P 
ATOM     18  O4  AT1 d          40.147   2.802   4.565  0.00  0.00    -0.638 OA
ATOM     19  O5  AT1 d          38.511   4.126   3.166  0.00  0.00    -0.638 OA
ATOM     20  O6  AT1 d          40.941   4.676   3.043  0.00  0.00    -0.638 OA
ENDBRANCH  16  17
ENDBRANCH  15  16
ENDBRANCH   3  15
BRANCH   5  21
ATOM     21  C3  AT1 d          37.350   5.923  10.794  0.00  0.00     0.001 C 
ATOM     22  C9  AT1 d          37.963   4.996  11.870  0.00  0.00     0.021 C 
ATOM     23  C10 AT1 d          37.472   7.370  11.261  0.00  0.00     0.021 C 
ATOM     24  C11 AT1 d          35.873   5.571  10.669  0.00  0.00     0.021 C 
ENDBRANCH   5  21
TORSDOF 8
ENDMDL
MODEL 6
REMARK VINA RESULT:      -6.4      2.554      5.913
REMARK  8 active torsions:
REMARK  status: ('A' for Active; 'I' for Inactive)
REMARK    1  A    between atoms: C1_4  and  N_1 
REMARK    2  A    between atoms: C_2  and  C1_4 
REMARK    3  A    between atoms: C6_13  and  C_2 
REMARK    4  A    between atoms: C1_4  and  C2_5 
REMARK    5  A    between atoms: O3_8  and  C4_11 
REMARK    6  A    between atoms: C5_12  and  O3_8 
REMARK    7  A    between atoms: C7_14  and  C3_10 
REMARK    8  A    between atoms: C4_11  and  P_18 
ROOT
ATOM      1  O2  AT1 d          37.271   1.831   8.333  0.00  0.00    -0.214 OA
ATOM      2  N1  AT1 d          38.171   2.129   7.284  0.00  0.00    -0.102 NA
ATOM      3  C5  AT1 d          38.431   3.405   7.442  0.00  0.00     0.200 A 
ATOM      4  C6  AT1 d          37.753   3.999   8.556  0.00  0.00     0.032 A 
ATOM      5  C7  AT1 d          37.028   2.945   9.077  0.00  0.00     0.097 A 
ENDROOT
BRANCH   4   6
ATOM      6  C   AT1 d          37.913   5.448   8.906  0.00  0.00     0.089 C 
BRANCH   6   7
ATOM      7  C1  AT1 d          39.115   5.780   9.794  0.00  0.00     0.287 C 
BRANCH   7   8
ATOM      8  N   AT1 d          38.678   6.385  11.136  0.00  0.00    -0.065 N 
ATOM      9  H1  AT1 d          39.167   5.925  11.888  0.00  0.00     0.275 HD
ATOM     10  H2  AT1 d          37.685   6.259  11.254  0.00  0.00     0.275 HD
ATOM     11  H3  AT1 d          38.896   7.369  11.147  0.00  0.00     0.275 HD
ENDBRANCH   7   8
BRANCH   7  12
ATOM     12  C2  AT1 d          40.088   6.802   9.083  0.00  0.00     0.204 C 
ATOM     13  O   AT1 d          41.102   7.188   9.743  0.00  0.00    -0.646 OA
ATOM     14  O1  AT1 d          39.799   7.160   7.918  0.00  0.00    -0.646 OA
ENDBRANCH   7  12
ENDBRANCH   6   7
ENDBRANCH   4   6
BRANCH   3  15
ATOM     15  O3  AT1 d          39.245   4.125   6.645  0.00  0.00    -0.319 OA
BRANCH  15  16
ATOM     16  C4  AT1 d          39.794   3.457   5.461  0.00  0.00     0.322 C 
BRANCH  16  17
ATOM     17  P   AT1 d          39.750   4.628   4.081  0.00  0.00     0.284 P 
ATOM     18  O4  AT1 d          40.974   4.460   3.254  0.00  0.00    -0.638 OA
ATOM     19  O5  AT1 d          38.454   4.319   3.381  0.00  0.00    -0.638 OA
ATOM     20  O6  AT1 d          39.644   6.051   4.725  0.00  0.00    -0.638 OA
ENDBRANCH  16  17
ENDBRANCH  15  16
ENDBRANCH   3  15
BRANCH   5  21
ATOM     21  C3  AT1 d          36.043   2.687  10.222  0.00  0.00     0.001 C 
ATOM     22  C9  AT1 d          36.798   2.934  11.550  0.00  0.00     0.021 C 
ATOM     23  C10 AT1 d          34.865   3.652  10.137  0.00  0.00     0.021 C 
ATOM     24  C11 AT1 d          35.508   1.261  10.255  0.00  0.00     0.021 C 
ENDBRANCH   5  21
TORSDOF 8
ENDMDL
MODEL 7
REMARK VINA RESULT:      -6.1      3.153      5.983
REMARK  8 active torsions:
REMARK  status: ('A' for Active; 'I' for Inactive)
REMARK    1  A    between atoms: C1_4  and  N_1 
REMARK    2  A    between atoms: C_2  and  C1_4 
REMARK    3  A    between atoms: C6_13  and  C_2 
REMARK    4  A    between atoms: C1_4  and  C2_5 
REMARK    5  A    between atoms: O3_8  and  C4_11 
REMARK    6  A    between atoms: C5_12  and  O3_8 
REMARK    7  A    between atoms: C7_14  and  C3_10 
REMARK    8  A    between atoms: C4_11  and  P_18 
ROOT
ATOM      1  O2  AT1 d          35.444   5.194   7.167  0.00  0.00    -0.214 OA
ATOM      2  N1  AT1 d          36.558   5.258   6.298  0.00  0.00    -0.102 NA
ATOM      3  C5  AT1 d          37.557   4.824   7.031  0.00  0.00     0.200 A 
ATOM      4  C6  AT1 d          37.179   4.461   8.364  0.00  0.00     0.032 A 
ATOM      5  C7  AT1 d          35.824   4.725   8.388  0.00  0.00     0.097 A 
ENDROOT
BRANCH   4   6
ATOM      6  C   AT1 d          38.173   3.946   9.362  0.00  0.00     0.089 C 
BRANCH   6   7
ATOM      7  C1  AT1 d          38.462   2.445   9.284  0.00  0.00     0.287 C 
BRANCH   7   8
ATOM      8  N   AT1 d          38.637   1.977   7.832  0.00  0.00    -0.065 N 
ATOM      9  H1  AT1 d          38.807   0.983   7.817  0.00  0.00     0.275 HD
ATOM     10  H2  AT1 d          39.419   2.457   7.415  0.00  0.00     0.275 HD
ATOM     11  H3  AT1 d          37.799   2.182   7.310  0.00  0.00     0.275 HD
ENDBRANCH   7   8
BRANCH   7  12
ATOM     12  C2  AT1 d          37.297   1.601   9.939  0.00  0.00     0.204 C 
ATOM     13  O   AT1 d          36.925   1.939  11.104  0.00  0.00    -0.646 OA
ATOM     14  O1  AT1 d          36.817   0.661   9.266  0.00  0.00    -0.646 OA
ENDBRANCH   7  12
ENDBRANCH   6   7
ENDBRANCH   4   6
BRANCH   3  15
ATOM     15  O3  AT1 d          38.832   4.728   6.606  0.00  0.00    -0.319 OA
BRANCH  15  16
ATOM     16  C4  AT1 d          39.139   5.242   5.267  0.00  0.00     0.322 C 
BRANCH  16  17
ATOM     17  P   AT1 d          39.763   3.869   4.265  0.00  0.00     0.284 P 
ATOM     18  O4  AT1 d          40.766   4.384   3.296  0.00  0.00    -0.638 OA
ATOM     19  O5  AT1 d          40.291   2.889   5.277  0.00  0.00    -0.638 OA
ATOM     20  O6  AT1 d          38.511   3.241   3.566  0.00  0.00    -0.638 OA
ENDBRANCH  16  17
ENDBRANCH  15  16
ENDBRANCH   3  15
BRANCH   5  21
ATOM     21  C3  AT1 d          34.658   4.650   9.380  0.00  0.00     0.001 C 
ATOM     22  C9  AT1 d          34.133   3.194   9.371  0.00  0.00     0.021 C 
ATOM     23  C10 AT1 d          35.136   4.994  10.787  0.00  0.00     0.021 C 
ATOM     24  C11 AT1 d          33.493   5.562   9.020  0.00  0.00     0.021 C 
ENDBRANCH   5  21
TORSDOF 8
ENDMDL
MODEL 8
REMARK VINA RESULT:      -6.0      2.448      4.290
REMARK  8 active torsions:
REMARK  status: ('A' for Active; 'I' for Inactive)
REMARK    1  A    between atoms: C1_4  and  N_1 
REMARK    2  A    between atoms: C_2  and  C1_4 
REMARK    3  A    between atoms: C6_13  and  C_2 
REMARK    4  A    between atoms: C1_4  and  C2_5 
REMARK    5  A    between atoms: O3_8  and  C4_11 
REMARK    6  A    between atoms: C5_12  and  O3_8 
REMARK    7  A    between atoms: C7_14  and  C3_10 
REMARK    8  A    between atoms: C4_11  and  P_18 
ROOT
ATOM      1  O2  AT1 d          39.551   5.990   7.500  0.00  0.00    -0.214 OA
ATOM      2  N1  AT1 d          38.982   4.703   7.633  0.00  0.00    -0.102 NA
ATOM      3  C5  AT1 d          38.668   4.625   8.905  0.00  0.00     0.200 A 
ATOM      4  C6  AT1 d          38.992   5.803   9.653  0.00  0.00     0.032 A 
ATOM      5  C7  AT1 d          39.556   6.631   8.702  0.00  0.00     0.097 A 
ENDROOT
BRANCH   4   6
ATOM      6  C   AT1 d          38.718   5.915  11.122  0.00  0.00     0.089 C 
BRANCH   6   7
ATOM      7  C1  AT1 d          37.239   6.010  11.507  0.00  0.00     0.287 C 
BRANCH   7   8
ATOM      8  N   AT1 d          36.584   4.623  11.586  0.00  0.00    -0.065 N 
ATOM      9  H1  AT1 d          37.250   3.957  11.946  0.00  0.00     0.275 HD
ATOM     10  H2  AT1 d          36.290   4.338  10.665  0.00  0.00     0.275 HD
ATOM     11  H3  AT1 d          35.784   4.662  12.197  0.00  0.00     0.275 HD
ENDBRANCH   7   8
BRANCH   7  12
ATOM     12  C2  AT1 d          36.429   6.881  10.467  0.00  0.00     0.204 C 
ATOM     13  O   AT1 d          36.477   8.141  10.606  0.00  0.00    -0.646 OA
ATOM     14  O1  AT1 d          35.798   6.272   9.572  0.00  0.00    -0.646 OA
ENDBRANCH   7  12
ENDBRANCH   6   7
ENDBRANCH   4   6
BRANCH   3  15
ATOM     15  O3  AT1 d          38.104   3.550   9.489  0.00  0.00    -0.319 OA
BRANCH  15  16
ATOM     16  C4  AT1 d          37.986   2.329   8.687  0.00  0.00     0.322 C 
BRANCH  16  17
ATOM     17  P   AT1 d          36.278   1.737   8.807  0.00  0.00     0.284 P 
ATOM     18  O4  AT1 d          35.433   2.797   9.417  0.00  0.00    -0.638 OA
ATOM     19  O5  AT1 d          35.921   1.365   7.394  0.00  0.00    -0.638 OA
ATOM     20  O6  AT1 d          36.333   0.433   9.671  0.00  0.00    -0.638 OA
ENDBRANCH  16  17
ENDBRANCH  15  16
ENDBRANCH   3  15
BRANCH   5  21
ATOM     21  C3  AT1 d          40.179   8.029   8.623  0.00  0.00     0.001 C 
ATOM     22  C9  AT1 d          41.618   7.929   9.184  0.00  0.00     0.021 C 
ATOM     23  C10 AT1 d          40.247   8.498   7.173  0.00  0.00     0.021 C 
ATOM     24  C11 AT1 d          39.435   9.074   9.443  0.00  0.00     0.021 C 
ENDBRANCH   5  21
TORSDOF 8
ENDMDL
MODEL 9
REMARK VINA RESULT:      -6.0      2.272      4.339
REMARK  8 active torsions:
REMARK  status: ('A' for Active; 'I' for Inactive)
REMARK    1  A    between atoms: C1_4  and  N_1 
REMARK    2  A    between atoms: C_2  and  C1_4 
REMARK    3  A    between atoms: C6_13  and  C_2 
REMARK    4  A    between atoms: C1_4  and  C2_5 
REMARK    5  A    between atoms: O3_8  and  C4_11 
REMARK    6  A    between atoms: C5_12  and  O3_8 
REMARK    7  A    between atoms: C7_14  and  C3_10 
REMARK    8  A    between atoms: C4_11  and  P_18 
ROOT
ATOM      1  O2  AT1 d          38.632   2.645   6.608  0.00  0.00    -0.214 OA
ATOM      2  N1  AT1 d          38.264   2.296   7.928  0.00  0.00    -0.102 NA
ATOM      3  C5  AT1 d          38.170   3.449   8.547  0.00  0.00     0.200 A 
ATOM      4  C6  AT1 d          38.455   4.577   7.711  0.00  0.00     0.032 A 
ATOM      5  C7  AT1 d          38.746   3.997   6.492  0.00  0.00     0.097 A 
ENDROOT
BRANCH   4   6
ATOM      6  C   AT1 d          38.407   5.984   8.228  0.00  0.00     0.089 C 
BRANCH   6   7
ATOM      7  C1  AT1 d          39.583   6.396   9.117  0.00  0.00     0.287 C 
BRANCH   7   8
ATOM      8  N   AT1 d          39.195   6.400  10.603  0.00  0.00    -0.065 N 
ATOM      9  H1  AT1 d          39.637   7.180  11.064  0.00  0.00     0.275 HD
ATOM     10  H2  AT1 d          39.500   5.540  11.032  0.00  0.00     0.275 HD
ATOM     11  H3  AT1 d          38.195   6.482  10.689  0.00  0.00     0.275 HD
ENDBRANCH   7   8
BRANCH   7  12
ATOM     12  C2  AT1 d          40.110   7.838   8.740  0.00  0.00     0.204 C 
ATOM     13  O   AT1 d          39.608   8.386   7.711  0.00  0.00    -0.646 OA
ATOM     14  O1  AT1 d          40.982   8.347   9.482  0.00  0.00    -0.646 OA
ENDBRANCH   7  12
ENDBRANCH   6   7
ENDBRANCH   4   6
BRANCH   3  15
ATOM     15  O3  AT1 d          37.852   3.595   9.848  0.00  0.00    -0.319 OA
BRANCH  15  16
ATOM     16  C4  AT1 d          37.816   2.385  10.675  0.00  0.00     0.322 C 
BRANCH  16  17
ATOM     17  P   AT1 d          36.089   1.869  10.847  0.00  0.00     0.284 P 
ATOM     18  O4  AT1 d          35.199   2.996  10.462  0.00  0.00    -0.638 OA
ATOM     19  O5  AT1 d          35.986   0.644   9.979  0.00  0.00    -0.638 OA
ATOM     20  O6  AT1 d          35.912   1.442  12.342  0.00  0.00    -0.638 OA
ENDBRANCH  16  17
ENDBRANCH  15  16
ENDBRANCH   3  15
BRANCH   5  21
ATOM     21  C3  AT1 d          39.161   4.436   5.084  0.00  0.00     0.001 C 
ATOM     22  C9  AT1 d          37.890   4.943   4.361  0.00  0.00     0.021 C 
ATOM     23  C10 AT1 d          40.173   5.575   5.159  0.00  0.00     0.021 C 
ATOM     24  C11 AT1 d          39.751   3.310   4.244  0.00  0.00     0.021 C 
ENDBRANCH   5  21
TORSDOF 8
ENDMDL
MODEL 10
REMARK VINA RESULT:      -6.0      2.458      4.649
REMARK  8 active torsions:
REMARK  status: ('A' for Active; 'I' for Inactive)
REMARK    1  A    between atoms: C1_4  and  N_1 
REMARK    2  A    between atoms: C_2  and  C1_4 
REMARK    3  A    between atoms: C6_13  and  C_2 
REMARK    4  A    between atoms: C1_4  and  C2_5 
REMARK    5  A    between atoms: O3_8  and  C4_11 
REMARK    6  A    between atoms: C5_12  and  O3_8 
REMARK    7  A    between atoms: C7_14  and  C3_10 
REMARK    8  A    between atoms: C4_11  and  P_18 
ROOT
ATOM      1  O2  AT1 d          40.164   6.838   5.867  0.00  0.00    -0.214 OA
ATOM      2  N1  AT1 d          39.890   5.789   4.960  0.00  0.00    -0.102 NA
ATOM      3  C5  AT1 d          39.073   5.003   5.621  0.00  0.00     0.200 A 
ATOM      4  C6  AT1 d          38.770   5.466   6.942  0.00  0.00     0.032 A 
ATOM      5  C7  AT1 d          39.500   6.635   7.038  0.00  0.00     0.097 A 
ENDROOT
BRANCH   4   6
ATOM      6  C   AT1 d          37.859   4.710   7.863  0.00  0.00     0.089 C 
BRANCH   6   7
ATOM      7  C1  AT1 d          38.528   3.607   8.687  0.00  0.00     0.287 C 
BRANCH   7   8
ATOM      8  N   AT1 d          38.701   2.317   7.871  0.00  0.00    -0.065 N 
ATOM      9  H1  AT1 d          39.628   1.949   8.016  0.00  0.00     0.275 HD
ATOM     10  H2  AT1 d          38.568   2.518   6.893  0.00  0.00     0.275 HD
ATOM     11  H3  AT1 d          38.020   1.637   8.170  0.00  0.00     0.275 HD
ENDBRANCH   7   8
BRANCH   7  12
ATOM     12  C2  AT1 d          37.686   3.266   9.980  0.00  0.00     0.204 C 
ATOM     13  O   AT1 d          36.459   2.987   9.813  0.00  0.00    -0.646 OA
ATOM     14  O1  AT1 d          38.284   3.287  11.081  0.00  0.00    -0.646 OA
ENDBRANCH   7  12
ENDBRANCH   6   7
ENDBRANCH   4   6
BRANCH   3  15
ATOM     15  O3  AT1 d          38.558   3.856   5.138  0.00  0.00    -0.319 OA
BRANCH  15  16
ATOM     16  C4  AT1 d          39.243   3.232   4.002  0.00  0.00     0.322 C 
BRANCH  16  17
ATOM     17  P   AT1 d          39.674   1.536   4.464  0.00  0.00     0.284 P 
ATOM     18  O4  AT1 d          40.755   1.564   5.484  0.00  0.00    -0.638 OA
ATOM     19  O5  AT1 d          38.371   0.940   4.924  0.00  0.00    -0.638 OA
ATOM     20  O6  AT1 d          40.110   0.825   3.139  0.00  0.00    -0.638 OA
ENDBRANCH  16  17
ENDBRANCH  15  16
ENDBRANCH   3  15
BRANCH   5  21
ATOM     21  C3  AT1 d          39.774   7.734   8.070  0.00  0.00     0.001 C 
ATOM     22  C9  AT1 d          40.497   7.076   9.270  0.00  0.00     0.021 C 
ATOM     23  C10 AT1 d          40.680   8.807   7.475  0.00  0.00     0.021 C 
ATOM     24  C11 AT1 d          38.511   8.398   8.602  0.00  0.00     0.021 C 
ENDBRANCH   5  21
TORSDOF 8
ENDMDL
