MODEL 1
REMARK VINA RESULT:      -6.9      0.000      0.000
REMARK  5 active torsions:
REMARK  status: ('A' for Active; 'I' for Inactive)
REMARK    1  A    between atoms: C1_17  and  N1_1 
REMARK    2  A    between atoms: C5_10  and  O5_9 
REMARK    3  A    between atoms: C3_13  and  O3_14 
REMARK    4  A    between atoms: O3_14  and  P_19 
REMARK    5  A    between atoms: C2_15  and  O2_16 
ROOT
ATOM      1  C5  UA3 d          40.285   0.098  12.283  0.00  0.00     0.198 C 
ATOM      2  C4  UA3 d          39.004  -0.253  12.146  0.00  0.00     0.180 C 
ATOM      3  O4  UA3 d          38.832  -1.547  11.578  0.00  0.00    -0.353 OA
ATOM      4  C3  UA3 d          38.098   0.552  12.799  0.00  0.00     0.199 C 
ATOM      5  C2  UA3 d          37.040  -0.808  13.076  0.00  0.00     0.199 C 
ATOM      6  C1  UA3 d          37.272  -1.540  11.575  0.00  0.00     0.264 C 
ENDROOT
BRANCH   6   7
ATOM      7  N1  UA3 d          36.677  -2.797  11.765  0.00  0.00    -0.280 N 
ATOM      8  C2  UA3 d          35.340  -2.940  11.291  0.00  0.00     0.331 A 
ATOM      9  O2  UA3 d          34.767  -2.063  10.750  0.00  0.00    -0.246 OA
ATOM     10  N3  UA3 d          34.802  -4.212  11.532  0.00  0.00    -0.275 N 
ATOM     11  C4  UA3 d          35.420  -5.310  12.171  0.00  0.00     0.250 A 
ATOM     12  H1  UA3 d          33.866  -4.360  11.211  0.00  0.00     0.173 HD
ATOM     13  O4  UA3 d          34.784  -6.335  12.286  0.00  0.00    -0.268 OA
ATOM     14  C5  UA3 d          36.779  -5.068  12.627  0.00  0.00     0.092 A 
ATOM     15  C6  UA3 d          37.353  -3.869  12.423  0.00  0.00     0.104 A 
ENDBRANCH   6   7
BRANCH   5  16
ATOM     16  O2  UA3 d          37.366  -1.469  14.544  0.00  0.00    -0.388 OA
ATOM     17  H10 UA3 d          36.703  -2.117  14.753  0.00  0.00     0.210 HD
ENDBRANCH   5  16
BRANCH   4  18
ATOM     18  O3  UA3 d          37.274   1.783  12.380  0.00  0.00    -0.272 OA
BRANCH  18  19
ATOM     19  P   UA3 d          36.932   3.050  13.121  0.00  0.00     0.422 P 
ATOM     20  O3P UA3 d          35.475   2.802  13.743  0.00  0.00    -0.617 OA
ATOM     21  O1P UA3 d          36.980   4.204  12.164  0.00  0.00    -0.617 OA
ATOM     22  O2P UA3 d          37.911   3.243  14.248  0.00  0.00    -0.617 OA
ENDBRANCH  18  19
ENDBRANCH   4  18
BRANCH   1  23
ATOM     23  O5  UA3 d          40.956  -0.116  13.687  0.00  0.00    -0.398 OA
ATOM     24  H4  UA3 d          41.118   0.729  14.092  0.00  0.00     0.209 HD
ENDBRANCH   1  23
TORSDOF 5
ENDMDL
MODEL 2
REMARK VINA RESULT:      -6.3      1.636      1.840
REMARK  5 active torsions:
REMARK  status: ('A' for Active; 'I' for Inactive)
REMARK    1  A    between atoms: C1_17  and  N1_1 
REMARK    2  A    between atoms: C5_10  and  O5_9 
REMARK    3  A    between atoms: C3_13  and  O3_14 
REMARK    4  A    between atoms: O3_14  and  P_19 
REMARK    5  A    between atoms: C2_15  and  O2_16 
ROOT
ATOM      1  C5  UA3 d          40.543  -2.302  13.535  0.00  0.00     0.198 C 
ATOM      2  C4  UA3 d          39.301  -2.263  13.046  0.00  0.00     0.180 C 
ATOM      3  O4  UA3 d          38.800  -3.544  12.678  0.00  0.00    -0.353 OA
ATOM      4  C3  UA3 d          38.634  -1.072  13.221  0.00  0.00     0.199 C 
ATOM      5  C2  UA3 d          37.108  -1.907  13.359  0.00  0.00     0.199 C 
ATOM      6  C1  UA3 d          37.411  -3.056  12.162  0.00  0.00     0.264 C 
ENDROOT
BRANCH   6   7
ATOM      7  N1  UA3 d          36.358  -3.965  12.354  0.00  0.00    -0.280 N 
ATOM      8  C2  UA3 d          35.229  -3.813  11.497  0.00  0.00     0.331 A 
ATOM      9  O2  UA3 d          35.183  -2.986  10.658  0.00  0.00    -0.246 OA
ATOM     10  N3  UA3 d          34.210  -4.740  11.758  0.00  0.00    -0.275 N 
ATOM     11  C4  UA3 d          34.188  -5.755  12.740  0.00  0.00     0.250 A 
ATOM     12  H1  UA3 d          33.399  -4.674  11.176  0.00  0.00     0.173 HD
ATOM     13  O4  UA3 d          33.207  -6.461  12.810  0.00  0.00    -0.268 OA
ATOM     14  C5  UA3 d          35.379  -5.828  13.571  0.00  0.00     0.092 A 
ATOM     15  C6  UA3 d          36.394  -4.969  13.369  0.00  0.00     0.104 A 
ENDBRANCH   6   7
BRANCH   5  16
ATOM     16  O2  UA3 d          36.788  -2.210  14.942  0.00  0.00    -0.388 OA
ATOM     17  H10 UA3 d          36.975  -3.121  15.133  0.00  0.00     0.210 HD
ENDBRANCH   5  16
BRANCH   4  18
ATOM     18  O3  UA3 d          38.466   0.190  12.356  0.00  0.00    -0.272 OA
BRANCH  18  19
ATOM     19  P   UA3 d          38.166   1.620  12.728  0.00  0.00     0.422 P 
ATOM     20  O3P UA3 d          36.715   1.925  12.120  0.00  0.00    -0.617 OA
ATOM     21  O1P UA3 d          39.242   2.506  12.172  0.00  0.00    -0.617 OA
ATOM     22  O2P UA3 d          38.095   1.735  14.227  0.00  0.00    -0.617 OA
ENDBRANCH  18  19
ENDBRANCH   4  18
BRANCH   1  23
ATOM     23  O5  UA3 d          40.715  -2.321  15.096  0.00  0.00    -0.398 OA
ATOM     24  H4  UA3 d          41.180  -3.108  15.354  0.00  0.00     0.209 HD
ENDBRANCH   1  23
TORSDOF 5
ENDMDL
MODEL 3
REMARK VINA RESULT:      -5.7      3.186      6.468
REMARK  5 active torsions:
REMARK  status: ('A' for Active; 'I' for Inactive)
REMARK    1  A    between atoms: C1_17  and  N1_1 
REMARK    2  A    between atoms: C5_10  and  O5_9 
REMARK    3  A    between atoms: C3_13  and  O3_14 
REMARK    4  A    between atoms: O3_14  and  P_19 
REMARK    5  A    between atoms: C2_15  and  O2_16 
ROOT
ATOM      1  C5  UA3 d          39.546  -2.379  14.275  0.00  0.00     0.198 C 
ATOM      2  C4  UA3 d          38.643  -1.467  13.905  0.00  0.00     0.180 C 
ATOM      3  O4  UA3 d          38.959  -0.151  14.349  0.00  0.00    -0.353 OA
ATOM      4  C3  UA3 d          37.731  -1.886  12.964  0.00  0.00     0.199 C 
ATOM      5  C2  UA3 d          37.642  -0.281  12.287  0.00  0.00     0.199 C 
ATOM      6  C1  UA3 d          37.698   0.549  13.754  0.00  0.00     0.264 C 
ENDROOT
BRANCH   6   7
ATOM      7  N1  UA3 d          37.902   1.873  13.335  0.00  0.00    -0.280 N 
ATOM      8  C2  UA3 d          36.745   2.705  13.284  0.00  0.00     0.331 A 
ATOM      9  O2  UA3 d          35.677   2.315  13.592  0.00  0.00    -0.246 OA
ATOM     10  N3  UA3 d          37.020   4.005  12.839  0.00  0.00    -0.275 N 
ATOM     11  C4  UA3 d          38.266   4.547  12.450  0.00  0.00     0.250 A 
ATOM     12  H1  UA3 d          36.237   4.627  12.791  0.00  0.00     0.173 HD
ATOM     13  O4  UA3 d          38.298   5.703  12.092  0.00  0.00    -0.268 OA
ATOM     14  C5  UA3 d          39.385   3.623  12.529  0.00  0.00     0.092 A 
ATOM     15  C6  UA3 d          39.188   2.362  12.951  0.00  0.00     0.104 A 
ENDBRANCH   6   7
BRANCH   5  16
ATOM     16  O2  UA3 d          38.714  -0.145  11.049  0.00  0.00    -0.388 OA
ATOM     17  H10 UA3 d          39.537   0.195  11.380  0.00  0.00     0.210 HD
ENDBRANCH   5  16
BRANCH   4  18
ATOM     18  O3  UA3 d          36.322  -2.500  13.049  0.00  0.00    -0.272 OA
BRANCH  18  19
ATOM     19  P   UA3 d          35.739  -3.743  12.426  0.00  0.00     0.422 P 
ATOM     20  O3P UA3 d          35.166  -3.280  11.002  0.00  0.00    -0.617 OA
ATOM     21  O1P UA3 d          34.686  -4.299  13.338  0.00  0.00    -0.617 OA
ATOM     22  O2P UA3 d          36.839  -4.745  12.200  0.00  0.00    -0.617 OA
ENDBRANCH  18  19
ENDBRANCH   4  18
BRANCH   1  23
ATOM     23  O5  UA3 d          40.653  -2.777  13.233  0.00  0.00    -0.398 OA
ATOM     24  H4  UA3 d          40.619  -2.181  12.494  0.00  0.00     0.209 HD
ENDBRANCH   1  23
TORSDOF 5
ENDMDL
MODEL 4
REMARK VINA RESULT:      -5.6      2.357      3.370
REMARK  5 active torsions:
REMARK  status: ('A' for Active; 'I' for Inactive)
REMARK    1  A    between atoms: C1_17  and  N1_1 
REMARK    2  A    between atoms: C5_10  and  O5_9 
REMARK    3  A    between atoms: C3_13  and  O3_14 
REMARK    4  A    between atoms: O3_14  and  P_19 
REMARK    5  A    between atoms: C2_15  and  O2_16 
ROOT
ATOM      1  C5  UA3 d          39.726   2.561  14.999  0.00  0.00     0.198 C 
ATOM      2  C4  UA3 d          39.076   2.142  13.910  0.00  0.00     0.180 C 
ATOM      3  O4  UA3 d          39.021   0.723  13.799  0.00  0.00    -0.353 OA
ATOM      4  C3  UA3 d          38.362   3.108  13.238  0.00  0.00     0.199 C 
ATOM      5  C2  UA3 d          37.164   1.935  12.756  0.00  0.00     0.199 C 
ATOM      6  C1  UA3 d          38.242   0.676  12.447  0.00  0.00     0.264 C 
ENDROOT
BRANCH   6   7
ATOM      7  N1  UA3 d          37.379  -0.422  12.303  0.00  0.00    -0.280 N 
ATOM      8  C2  UA3 d          36.559  -0.431  11.137  0.00  0.00     0.331 A 
ATOM      9  O2  UA3 d          36.612   0.422  10.325  0.00  0.00    -0.246 OA
ATOM     10  N3  UA3 d          35.710  -1.544  11.068  0.00  0.00    -0.275 N 
ATOM     11  C4  UA3 d          35.587  -2.603  11.996  0.00  0.00     0.250 A 
ATOM     12  H1  UA3 d          35.118  -1.595  10.263  0.00  0.00     0.173 HD
ATOM     13  O4  UA3 d          34.788  -3.481  11.757  0.00  0.00    -0.268 OA
ATOM     14  C5  UA3 d          36.457  -2.503  13.156  0.00  0.00     0.092 A 
ATOM     15  C6  UA3 d          37.298  -1.461  13.279  0.00  0.00     0.104 A 
ENDBRANCH   6   7
BRANCH   5  16
ATOM     16  O2  UA3 d          35.936   1.921  13.848  0.00  0.00    -0.388 OA
ATOM     17  H10 UA3 d          35.106   1.992  13.391  0.00  0.00     0.210 HD
ENDBRANCH   5  16
BRANCH   4  18
ATOM     18  O3  UA3 d          38.687   4.043  12.060  0.00  0.00    -0.272 OA
BRANCH  18  19
ATOM     19  P   UA3 d          39.758   5.090  11.886  0.00  0.00     0.422 P 
ATOM     20  O3P UA3 d          39.756   5.449  10.324  0.00  0.00    -0.617 OA
ATOM     21  O1P UA3 d          41.066   4.534  12.366  0.00  0.00    -0.617 OA
ATOM     22  O2P UA3 d          39.376   6.321  12.664  0.00  0.00    -0.617 OA
ENDBRANCH  18  19
ENDBRANCH   4  18
BRANCH   1  23
ATOM     23  O5  UA3 d          38.869   2.944  16.258  0.00  0.00    -0.398 OA
ATOM     24  H4  UA3 d          39.242   3.714  16.672  0.00  0.00     0.209 HD
ENDBRANCH   1  23
TORSDOF 5
ENDMDL
MODEL 5
REMARK VINA RESULT:      -5.5      3.466      4.865
REMARK  5 active torsions:
REMARK  status: ('A' for Active; 'I' for Inactive)
REMARK    1  A    between atoms: C1_17  and  N1_1 
REMARK    2  A    between atoms: C5_10  and  O5_9 
REMARK    3  A    between atoms: C3_13  and  O3_14 
REMARK    4  A    between atoms: O3_14  and  P_19 
REMARK    5  A    between atoms: C2_15  and  O2_16 
ROOT
ATOM      1  C5  UA3 d          39.131  -4.899  13.471  0.00  0.00     0.198 C 
ATOM      2  C4  UA3 d          37.874  -5.006  13.032  0.00  0.00     0.180 C 
ATOM      3  O4  UA3 d          37.652  -6.170  12.242  0.00  0.00    -0.353 OA
ATOM      4  C3  UA3 d          36.969  -4.148  13.613  0.00  0.00     0.199 C 
ATOM      5  C2  UA3 d          35.696  -5.332  13.457  0.00  0.00     0.199 C 
ATOM      6  C1  UA3 d          36.147  -5.897  11.934  0.00  0.00     0.264 C 
ENDROOT
BRANCH   6   7
ATOM      7  N1  UA3 d          35.355  -7.048  11.801  0.00  0.00    -0.280 N 
ATOM      8  C2  UA3 d          33.972  -6.834  11.528  0.00  0.00     0.331 A 
ATOM      9  O2  UA3 d          33.516  -5.755  11.400  0.00  0.00    -0.246 OA
ATOM     10  N3  UA3 d          33.239  -8.025  11.428  0.00  0.00    -0.275 N 
ATOM     11  C4  UA3 d          33.708  -9.350  11.570  0.00  0.00     0.250 A 
ATOM     12  H1  UA3 d          32.263  -7.924  11.232  0.00  0.00     0.173 HD
ATOM     13  O4  UA3 d          32.912 -10.254  11.448  0.00  0.00    -0.268 OA
ATOM     14  C5  UA3 d          35.129  -9.469  11.854  0.00  0.00     0.092 A 
ATOM     15  C6  UA3 d          35.889  -8.364  11.958  0.00  0.00     0.104 A 
ENDBRANCH   6   7
BRANCH   5  16
ATOM     16  O2  UA3 d          35.597  -6.219  14.836  0.00  0.00    -0.388 OA
ATOM     17  H10 UA3 d          36.472  -6.397  15.161  0.00  0.00     0.210 HD
ENDBRANCH   5  16
BRANCH   4  18
ATOM     18  O3  UA3 d          36.438  -2.752  13.242  0.00  0.00    -0.272 OA
BRANCH  18  19
ATOM     19  P   UA3 d          36.579  -1.936  11.982  0.00  0.00     0.422 P 
ATOM     20  O3P UA3 d          36.003  -0.485  12.345  0.00  0.00    -0.617 OA
ATOM     21  O1P UA3 d          35.828  -2.614  10.874  0.00  0.00    -0.617 OA
ATOM     22  O2P UA3 d          38.039  -1.804  11.641  0.00  0.00    -0.617 OA
ENDBRANCH  18  19
ENDBRANCH   4  18
BRANCH   1  23
ATOM     23  O5  UA3 d          39.441  -5.399  14.928  0.00  0.00    -0.398 OA
ATOM     24  H4  UA3 d          40.295  -5.815  14.944  0.00  0.00     0.209 HD
ENDBRANCH   1  23
TORSDOF 5
ENDMDL
MODEL 6
REMARK VINA RESULT:      -5.4      3.735      6.588
REMARK  5 active torsions:
REMARK  status: ('A' for Active; 'I' for Inactive)
REMARK    1  A    between atoms: C1_17  and  N1_1 
REMARK    2  A    between atoms: C5_10  and  O5_9 
REMARK    3  A    between atoms: C3_13  and  O3_14 
REMARK    4  A    between atoms: O3_14  and  P_19 
REMARK    5  A    between atoms: C2_15  and  O2_16 
ROOT
ATOM      1  C5  UA3 d          35.760  -2.403  10.976  0.00  0.00     0.198 C 
ATOM      2  C4  UA3 d          36.322  -3.136  11.941  0.00  0.00     0.180 C 
ATOM      3  O4  UA3 d          37.745  -3.141  11.887  0.00  0.00    -0.353 OA
ATOM      4  C3  UA3 d          35.476  -3.533  12.951  0.00  0.00     0.199 C 
ATOM      5  C2  UA3 d          36.774  -3.456  14.114  0.00  0.00     0.199 C 
ATOM      6  C1  UA3 d          37.971  -4.086  13.107  0.00  0.00     0.264 C 
ENDROOT
BRANCH   6   7
ATOM      7  N1  UA3 d          39.139  -3.830  13.843  0.00  0.00    -0.280 N 
ATOM      8  C2  UA3 d          39.499  -4.807  14.816  0.00  0.00     0.331 A 
ATOM      9  O2  UA3 d          38.867  -5.788  14.987  0.00  0.00    -0.246 OA
ATOM     10  N3  UA3 d          40.662  -4.477  15.526  0.00  0.00    -0.275 N 
ATOM     11  C4  UA3 d          41.470  -3.327  15.384  0.00  0.00     0.250 A 
ATOM     12  H1  UA3 d          40.956  -5.138  16.218  0.00  0.00     0.173 HD
ATOM     13  O4  UA3 d          42.443  -3.222  16.097  0.00  0.00    -0.268 OA
ATOM     14  C5  UA3 d          41.020  -2.384  14.373  0.00  0.00     0.092 A 
ATOM     15  C6  UA3 d          39.913  -2.645  13.655  0.00  0.00     0.104 A 
ENDBRANCH   6   7
BRANCH   5  16
ATOM     16  O2  UA3 d          36.782  -1.979  14.832  0.00  0.00    -0.388 OA
ATOM     17  H10 UA3 d          35.904  -1.616  14.818  0.00  0.00     0.210 HD
ENDBRANCH   5  16
BRANCH   4  18
ATOM     18  O3  UA3 d          34.627  -4.795  13.192  0.00  0.00    -0.272 OA
BRANCH  18  19
ATOM     19  P   UA3 d          34.537  -6.094  12.431  0.00  0.00     0.422 P 
ATOM     20  O3P UA3 d          33.225  -6.827  12.990  0.00  0.00    -0.617 OA
ATOM     21  O1P UA3 d          35.796  -6.879  12.653  0.00  0.00    -0.617 OA
ATOM     22  O2P UA3 d          34.338  -5.797  10.969  0.00  0.00    -0.617 OA
ENDBRANCH  18  19
ENDBRANCH   4  18
BRANCH   1  23
ATOM     23  O5  UA3 d          35.331  -0.934  11.331  0.00  0.00    -0.398 OA
ATOM     24  H4  UA3 d          35.538  -0.755  12.241  0.00  0.00     0.209 HD
ENDBRANCH   1  23
TORSDOF 5
ENDMDL
MODEL 7
REMARK VINA RESULT:      -5.3      2.312      4.297
REMARK  5 active torsions:
REMARK  status: ('A' for Active; 'I' for Inactive)
REMARK    1  A    between atoms: C1_17  and  N1_1 
REMARK    2  A    between atoms: C5_10  and  O5_9 
REMARK    3  A    between atoms: C3_13  and  O3_14 
REMARK    4  A    between atoms: O3_14  and  P_19 
REMARK    5  A    between atoms: C2_15  and  O2_16 
ROOT
ATOM      1  C5  UA3 d          37.815  -0.305  13.944  0.00  0.00     0.198 C 
ATOM      2  C4  UA3 d          37.720  -1.466  13.291  0.00  0.00     0.180 C 
ATOM      3  O4  UA3 d          37.157  -2.510  14.078  0.00  0.00    -0.353 OA
ATOM      4  C3  UA3 d          37.925  -1.398  11.931  0.00  0.00     0.199 C 
ATOM      5  C2  UA3 d          36.796  -2.700  11.662  0.00  0.00     0.199 C 
ATOM      6  C1  UA3 d          37.253  -3.628  12.994  0.00  0.00     0.264 C 
ENDROOT
BRANCH   6   7
ATOM      7  N1  UA3 d          36.231  -4.590  13.047  0.00  0.00    -0.280 N 
ATOM      8  C2  UA3 d          36.374  -5.608  14.034  0.00  0.00     0.331 A 
ATOM      9  O2  UA3 d          37.286  -5.637  14.781  0.00  0.00    -0.246 OA
ATOM     10  N3  UA3 d          35.330  -6.544  14.017  0.00  0.00    -0.275 N 
ATOM     11  C4  UA3 d          34.209  -6.580  13.158  0.00  0.00     0.250 A 
ATOM     12  H1  UA3 d          35.386  -7.275  14.697  0.00  0.00     0.173 HD
ATOM     13  O4  UA3 d          33.409  -7.478  13.301  0.00  0.00    -0.268 OA
ATOM     14  C5  UA3 d          34.153  -5.506  12.180  0.00  0.00     0.092 A 
ATOM     15  C6  UA3 d          35.123  -4.575  12.147  0.00  0.00     0.104 A 
ENDBRANCH   6   7
BRANCH   5  16
ATOM     16  O2  UA3 d          35.302  -2.082  11.371  0.00  0.00    -0.388 OA
ATOM     17  H10 UA3 d          34.817  -2.677  10.812  0.00  0.00     0.210 HD
ENDBRANCH   5  16
BRANCH   4  18
ATOM     18  O3  UA3 d          39.162  -1.579  11.032  0.00  0.00    -0.272 OA
BRANCH  18  19
ATOM     19  P   UA3 d          40.592  -1.919  11.365  0.00  0.00     0.422 P 
ATOM     20  O3P UA3 d          40.549  -3.400  11.978  0.00  0.00    -0.617 OA
ATOM     21  O1P UA3 d          41.128  -0.895  12.322  0.00  0.00    -0.617 OA
ATOM     22  O2P UA3 d          41.401  -1.946  10.096  0.00  0.00    -0.617 OA
ENDBRANCH  18  19
ENDBRANCH   4  18
BRANCH   1  23
ATOM     23  O5  UA3 d          36.675   0.753  13.724  0.00  0.00    -0.398 OA
ATOM     24  H4  UA3 d          35.889   0.313  13.422  0.00  0.00     0.209 HD
ENDBRANCH   1  23
TORSDOF 5
ENDMDL
MODEL 8
REMARK VINA RESULT:      -5.1      2.327      3.720
REMARK  5 active torsions:
REMARK  status: ('A' for Active; 'I' for Inactive)
REMARK    1  A    between atoms: C1_17  and  N1_1 
REMARK    2  A    between atoms: C5_10  and  O5_9 
REMARK    3  A    between atoms: C3_13  and  O3_14 
REMARK    4  A    between atoms: O3_14  and  P_19 
REMARK    5  A    between atoms: C2_15  and  O2_16 
ROOT
ATOM      1  C5  UA3 d          39.098   1.890  14.551  0.00  0.00     0.198 C 
ATOM      2  C4  UA3 d          39.023   0.880  13.680  0.00  0.00     0.180 C 
ATOM      3  O4  UA3 d          38.281  -0.231  14.169  0.00  0.00    -0.353 OA
ATOM      4  C3  UA3 d          39.432   1.173  12.398  0.00  0.00     0.199 C 
ATOM      5  C2  UA3 d          38.271   0.053  11.735  0.00  0.00     0.199 C 
ATOM      6  C1  UA3 d          38.461  -1.139  12.913  0.00  0.00     0.264 C 
ENDROOT
BRANCH   6   7
ATOM      7  N1  UA3 d          37.380  -1.994  12.644  0.00  0.00    -0.280 N 
ATOM      8  C2  UA3 d          37.030  -2.913  13.676  0.00  0.00     0.331 A 
ATOM      9  O2  UA3 d          37.599  -2.945  14.709  0.00  0.00    -0.246 OA
ATOM     10  N3  UA3 d          35.958  -3.747  13.332  0.00  0.00    -0.275 N 
ATOM     11  C4  UA3 d          35.229  -3.772  12.122  0.00  0.00     0.250 A 
ATOM     12  H1  UA3 d          35.673  -4.406  14.029  0.00  0.00     0.173 HD
ATOM     13  O4  UA3 d          34.329  -4.575  12.014  0.00  0.00    -0.268 OA
ATOM     14  C5  UA3 d          35.663  -2.805  11.126  0.00  0.00     0.092 A 
ATOM     15  C6  UA3 d          36.684  -1.973  11.397  0.00  0.00     0.104 A 
ENDBRANCH   6   7
BRANCH   5  16
ATOM     16  O2  UA3 d          36.881   0.851  11.372  0.00  0.00    -0.388 OA
ATOM     17  H10 UA3 d          36.401   1.028  12.172  0.00  0.00     0.210 HD
ENDBRANCH   5  16
BRANCH   4  18
ATOM     18  O3  UA3 d          40.774   1.041  11.655  0.00  0.00    -0.272 OA
BRANCH  18  19
ATOM     19  P   UA3 d          41.867   2.045  11.389  0.00  0.00     0.422 P 
ATOM     20  O3P UA3 d          42.285   1.827   9.857  0.00  0.00    -0.617 OA
ATOM     21  O1P UA3 d          42.993   1.807  12.351  0.00  0.00    -0.617 OA
ATOM     22  O2P UA3 d          41.309   3.435  11.544  0.00  0.00    -0.617 OA
ENDBRANCH  18  19
ENDBRANCH   4  18
BRANCH   1  23
ATOM     23  O5  UA3 d          38.077   3.073  14.387  0.00  0.00    -0.398 OA
ATOM     24  H4  UA3 d          37.337   2.782  13.867  0.00  0.00     0.209 HD
ENDBRANCH   1  23
TORSDOF 5
ENDMDL
MODEL 9
REMARK VINA RESULT:      -5.0      2.856      4.029
REMARK  5 active torsions:
REMARK  status: ('A' for Active; 'I' for Inactive)
REMARK    1  A    between atoms: C1_17  and  N1_1 
REMARK    2  A    between atoms: C5_10  and  O5_9 
REMARK    3  A    between atoms: C3_13  and  O3_14 
REMARK    4  A    between atoms: O3_14  and  P_19 
REMARK    5  A    between atoms: C2_15  and  O2_16 
ROOT
ATOM      1  C5  UA3 d          38.448  -3.035  16.159  0.00  0.00     0.198 C 
ATOM      2  C4  UA3 d          38.131  -3.450  14.930  0.00  0.00     0.180 C 
ATOM      3  O4  UA3 d          37.645  -4.787  14.894  0.00  0.00    -0.353 OA
ATOM      4  C3  UA3 d          38.076  -2.465  13.970  0.00  0.00     0.199 C 
ATOM      5  C2  UA3 d          36.810  -3.315  13.122  0.00  0.00     0.199 C 
ATOM      6  C1  UA3 d          37.435  -4.865  13.350  0.00  0.00     0.264 C 
ENDROOT
BRANCH   6   7
ATOM      7  N1  UA3 d          36.365  -5.677  12.941  0.00  0.00    -0.280 N 
ATOM      8  C2  UA3 d          36.687  -6.745  12.054  0.00  0.00     0.331 A 
ATOM      9  O2  UA3 d          37.791  -6.954  11.696  0.00  0.00    -0.246 OA
ATOM     10  N3  UA3 d          35.570  -7.501  11.672  0.00  0.00    -0.275 N 
ATOM     11  C4  UA3 d          34.222  -7.315  12.053  0.00  0.00     0.250 A 
ATOM     12  H1  UA3 d          35.749  -8.266  11.053  0.00  0.00     0.173 HD
ATOM     13  O4  UA3 d          33.394  -8.079  11.611  0.00  0.00    -0.268 OA
ATOM     14  C5  UA3 d          33.990  -6.196  12.952  0.00  0.00     0.092 A 
ATOM     15  C6  UA3 d          35.021  -5.435  13.359  0.00  0.00     0.104 A 
ENDBRANCH   6   7
BRANCH   5  16
ATOM     16  O2  UA3 d          35.345  -2.770  13.630  0.00  0.00    -0.388 OA
ATOM     17  H10 UA3 d          35.230  -2.986  14.548  0.00  0.00     0.210 HD
ENDBRANCH   5  16
BRANCH   4  18
ATOM     18  O3  UA3 d          39.096  -1.902  12.964  0.00  0.00    -0.272 OA
BRANCH  18  19
ATOM     19  P   UA3 d          39.295  -0.510  12.422  0.00  0.00     0.422 P 
ATOM     20  O3P UA3 d          39.327   0.450  13.706  0.00  0.00    -0.617 OA
ATOM     21  O1P UA3 d          38.179  -0.192  11.471  0.00  0.00    -0.617 OA
ATOM     22  O2P UA3 d          40.630  -0.434  11.730  0.00  0.00    -0.617 OA
ENDBRANCH  18  19
ENDBRANCH   4  18
BRANCH   1  23
ATOM     23  O5  UA3 d          37.380  -2.192  16.944  0.00  0.00    -0.398 OA
ATOM     24  H4  UA3 d          36.556  -2.665  16.964  0.00  0.00     0.209 HD
ENDBRANCH   1  23
TORSDOF 5
ENDMDL
MODEL 10
REMARK VINA RESULT:      -4.9      2.718      3.632
REMARK  5 active torsions:
REMARK  status: ('A' for Active; 'I' for Inactive)
REMARK    1  A    between atoms: C1_17  and  N1_1 
REMARK    2  A    between atoms: C5_10  and  O5_9 
REMARK    3  A    between atoms: C3_13  and  O3_14 
REMARK    4  A    between atoms: O3_14  and  P_19 
REMARK    5  A    between atoms: C2_15  and  O2_16 
ROOT
ATOM      1  C5  UA3 d          41.050  -4.363  13.393  0.00  0.00     0.198 C 
ATOM      2  C4  UA3 d          39.782  -3.956  13.287  0.00  0.00     0.180 C 
ATOM      3  O4  UA3 d          38.973  -4.834  12.510  0.00  0.00    -0.353 OA
ATOM      4  C3  UA3 d          39.415  -2.937  14.136  0.00  0.00     0.199 C 
ATOM      5  C2  UA3 d          37.789  -3.563  14.239  0.00  0.00     0.199 C 
ATOM      6  C1  UA3 d          37.653  -4.009  12.619  0.00  0.00     0.264 C 
ENDROOT
BRANCH   6   7
ATOM      7  N1  UA3 d          36.477  -4.776  12.622  0.00  0.00    -0.280 N 
ATOM      8  C2  UA3 d          35.323  -4.166  12.050  0.00  0.00     0.331 A 
ATOM      9  O2  UA3 d          35.351  -3.085  11.580  0.00  0.00    -0.246 OA
ATOM     10  N3  UA3 d          34.183  -4.980  12.106  0.00  0.00    -0.275 N 
ATOM     11  C4  UA3 d          34.068  -6.278  12.652  0.00  0.00     0.250 A 
ATOM     12  H1  UA3 d          33.349  -4.594  11.711  0.00  0.00     0.173 HD
ATOM     13  O4  UA3 d          32.987  -6.822  12.605  0.00  0.00    -0.268 OA
ATOM     14  C5  UA3 d          35.294  -6.814  13.219  0.00  0.00     0.092 A 
ATOM     15  C6  UA3 d          36.423  -6.084  13.193  0.00  0.00     0.104 A 
ENDBRANCH   6   7
BRANCH   5  16
ATOM     16  O2  UA3 d          37.666  -4.561  15.538  0.00  0.00    -0.388 OA
ATOM     17  H10 UA3 d          36.790  -4.498  15.903  0.00  0.00     0.210 HD
ENDBRANCH   5  16
BRANCH   4  18
ATOM     18  O3  UA3 d          39.380  -1.403  14.003  0.00  0.00    -0.272 OA
BRANCH  18  19
ATOM     19  P   UA3 d          39.769  -0.495  12.865  0.00  0.00     0.422 P 
ATOM     20  O3P UA3 d          41.316  -0.805  12.578  0.00  0.00    -0.617 OA
ATOM     21  O1P UA3 d          39.514   0.928  13.267  0.00  0.00    -0.617 OA
ATOM     22  O2P UA3 d          38.969  -0.861  11.644  0.00  0.00    -0.617 OA
ENDBRANCH  18  19
ENDBRANCH   4  18
BRANCH   1  23
ATOM     23  O5  UA3 d          41.457  -5.157  14.686  0.00  0.00    -0.398 OA
ATOM     24  H4  UA3 d          42.274  -5.616  14.531  0.00  0.00     0.209 HD
ENDBRANCH   1  23
TORSDOF 5
ENDMDL
