MODEL 1
REMARK VINA RESULT:     -10.8      0.000      0.000
REMARK  7 active torsions:
REMARK  status: ('A' for Active; 'I' for Inactive)
REMARK    1  A    between atoms: C15_7  and  S14_8 
REMARK    2  A    between atoms: S14_8  and  C13_11 
REMARK    3  A    between atoms: C13_11  and  C11_12 
REMARK    4  A    between atoms: C11_12  and  O11_13 
REMARK    5  A    between atoms: C11_12  and  C10_15 
REMARK       I    between atoms: C10_15  and  N9_17 
REMARK    6  A    between atoms: N9_17  and  C1_18 
REMARK    7  A    between atoms: C3_25  and  C7_26 
ROOT
ATOM      1  C1  MOL d          27.459   3.313   4.961  0.00  0.00     0.035 A 
ATOM      2  C2  MOL d          26.077   3.141   5.003  0.00  0.00     0.047 A 
ATOM      3  C6  MOL d          27.971   4.592   4.772  0.00  0.00     0.031 A 
ATOM      4  C5  MOL d          27.102   5.670   4.639  0.00  0.00     0.026 A 
ATOM      5  C4  MOL d          25.723   5.483   4.684  0.00  0.00     0.059 A 
ATOM      6  C8  MOL d          24.923   6.664   4.566  0.00  0.00     0.100 C 
ATOM      7  N8  MOL d          24.299   7.611   4.465  0.00  0.00    -0.191 NA
ATOM      8  C3  MOL d          25.183   4.205   4.858  0.00  0.00     0.070 A 
ENDROOT
BRANCH   8   9
ATOM      9  C7  MOL d          23.670   3.915   4.886  0.00  0.00     0.419 C 
ATOM     10  F7B MOL d          23.216   4.041   6.129  0.00  0.00    -0.166 F 
ATOM     11  F7C MOL d          22.942   4.715   4.112  0.00  0.00    -0.166 F 
ATOM     12  F7A MOL d          23.387   2.681   4.474  0.00  0.00    -0.166 F 
ENDBRANCH   8   9
BRANCH   1  13
ATOM     13  N9  MOL d          28.325   2.299   4.986  0.00  0.00    -0.325 N 
ATOM     14  C10 MOL d          28.355   1.273   4.139  0.00  0.00     0.257 C 
ATOM     15  O10 MOL d          27.505   1.042   3.278  0.00  0.00    -0.270 OA
ATOM     16  H11 MOL d          29.016   2.310   5.709  0.00  0.00     0.169 HD
BRANCH  14  17
ATOM     17  C11 MOL d          29.493   0.283   4.397  0.00  0.00     0.148 C 
ATOM     18  C12 MOL d          29.272  -0.961   3.535  0.00  0.00     0.057 C 
BRANCH  17  19
ATOM     19  C13 MOL d          29.535  -0.099   5.880  0.00  0.00     0.193 C 
BRANCH  19  20
ATOM     20  S14 MOL d          30.811   0.773   6.862  0.00  0.00     0.178 S 
ATOM     21  O14 MOL d          30.929   2.197   6.404  0.00  0.00    -0.222 OA
ATOM     22  O15 MOL d          32.129   0.078   6.698  0.00  0.00    -0.222 OA
BRANCH  20  23
ATOM     23  C15 MOL d          30.346   0.754   8.547  0.00  0.00     0.059 A 
ATOM     24  C16 MOL d          31.055  -0.019   9.463  0.00  0.00     0.026 A 
ATOM     25  C17 MOL d          30.692  -0.014  10.807  0.00  0.00     0.044 A 
ATOM     26  C18 MOL d          29.620   0.765  11.232  0.00  0.00     0.116 A 
ATOM     27  F18 MOL d          29.263   0.776  12.532  0.00  0.00    -0.206 F 
ATOM     28  C19 MOL d          28.912   1.538  10.317  0.00  0.00     0.044 A 
ATOM     29  C20 MOL d          29.274   1.531   8.974  0.00  0.00     0.026 A 
ENDBRANCH  20  23
ENDBRANCH  19  20
ENDBRANCH  17  19
BRANCH  17  30
ATOM     30  O11 MOL d          30.728   0.907   4.038  0.00  0.00    -0.380 OA
ATOM     31  H7  MOL d          30.567   1.568   3.374  0.00  0.00     0.211 HD
ENDBRANCH  17  30
ENDBRANCH  14  17
ENDBRANCH   1  13
TORSDOF 7
ENDMDL
MODEL 2
REMARK VINA RESULT:      -9.7      1.453      2.066
REMARK  7 active torsions:
REMARK  status: ('A' for Active; 'I' for Inactive)
REMARK    1  A    between atoms: C15_7  and  S14_8 
REMARK    2  A    between atoms: S14_8  and  C13_11 
REMARK    3  A    between atoms: C13_11  and  C11_12 
REMARK    4  A    between atoms: C11_12  and  O11_13 
REMARK    5  A    between atoms: C11_12  and  C10_15 
REMARK       I    between atoms: C10_15  and  N9_17 
REMARK    6  A    between atoms: N9_17  and  C1_18 
REMARK    7  A    between atoms: C3_25  and  C7_26 
ROOT
ATOM      1  C1  MOL d          26.663   2.234   4.923  0.00  0.00     0.035 A 
ATOM      2  C2  MOL d          26.607   3.622   4.811  0.00  0.00     0.047 A 
ATOM      3  C6  MOL d          25.473   1.519   5.000  0.00  0.00     0.031 A 
ATOM      4  C5  MOL d          24.258   2.194   4.955  0.00  0.00     0.026 A 
ATOM      5  C4  MOL d          24.218   3.580   4.842  0.00  0.00     0.059 A 
ATOM      6  C8  MOL d          22.915   4.170   4.774  0.00  0.00     0.100 C 
ATOM      7  N8  MOL d          21.873   4.625   4.728  0.00  0.00    -0.191 NA
ATOM      8  C3  MOL d          25.401   4.325   4.777  0.00  0.00     0.070 A 
ENDROOT
BRANCH   8   9
ATOM      9  C7  MOL d          25.437   5.862   4.684  0.00  0.00     0.419 C 
ATOM     10  F7B MOL d          26.675   6.292   4.905  0.00  0.00    -0.166 F 
ATOM     11  F7C MOL d          25.047   6.352   3.510  0.00  0.00    -0.166 F 
ATOM     12  F7A MOL d          24.641   6.438   5.582  0.00  0.00    -0.166 F 
ENDBRANCH   8   9
BRANCH   1  13
ATOM     13  N9  MOL d          27.802   1.556   5.069  0.00  0.00    -0.325 N 
ATOM     14  C10 MOL d          28.313   0.686   4.201  0.00  0.00     0.257 C 
ATOM     15  O10 MOL d          27.744   0.282   3.187  0.00  0.00    -0.270 OA
ATOM     16  H11 MOL d          28.321   1.716   5.909  0.00  0.00     0.169 HD
BRANCH  14  17
ATOM     17  C11 MOL d          29.659   0.094   4.628  0.00  0.00     0.148 C 
ATOM     18  C12 MOL d          29.907  -1.192   3.838  0.00  0.00     0.057 C 
BRANCH  17  19
ATOM     19  C13 MOL d          29.654  -0.198   6.131  0.00  0.00     0.193 C 
BRANCH  19  20
ATOM     20  S14 MOL d          30.667   0.947   7.139  0.00  0.00     0.178 S 
ATOM     21  O14 MOL d          30.424   2.364   6.710  0.00  0.00    -0.222 OA
ATOM     22  O15 MOL d          32.118   0.610   6.971  0.00  0.00    -0.222 OA
BRANCH  20  23
ATOM     23  C15 MOL d          30.219   0.776   8.821  0.00  0.00     0.059 A 
ATOM     24  C16 MOL d          30.931  -0.082   9.654  0.00  0.00     0.026 A 
ATOM     25  C17 MOL d          30.581  -0.199  10.996  0.00  0.00     0.044 A 
ATOM     26  C18 MOL d          29.521   0.546  11.503  0.00  0.00     0.116 A 
ATOM     27  F18 MOL d          29.176   0.440  12.802  0.00  0.00    -0.206 F 
ATOM     28  C19 MOL d          28.810   1.405  10.671  0.00  0.00     0.044 A 
ATOM     29  C20 MOL d          29.158   1.519   9.328  0.00  0.00     0.026 A 
ENDBRANCH  20  23
ENDBRANCH  19  20
ENDBRANCH  17  19
BRANCH  17  30
ATOM     30  O11 MOL d          30.686   1.046   4.338  0.00  0.00    -0.380 OA
ATOM     31  H7  MOL d          30.829   1.079   3.399  0.00  0.00     0.211 HD
ENDBRANCH  17  30
ENDBRANCH  14  17
ENDBRANCH   1  13
TORSDOF 7
ENDMDL
MODEL 3
REMARK VINA RESULT:      -9.3      2.769      4.390
REMARK  7 active torsions:
REMARK  status: ('A' for Active; 'I' for Inactive)
REMARK    1  A    between atoms: C15_7  and  S14_8 
REMARK    2  A    between atoms: S14_8  and  C13_11 
REMARK    3  A    between atoms: C13_11  and  C11_12 
REMARK    4  A    between atoms: C11_12  and  O11_13 
REMARK    5  A    between atoms: C11_12  and  C10_15 
REMARK       I    between atoms: C10_15  and  N9_17 
REMARK    6  A    between atoms: N9_17  and  C1_18 
REMARK    7  A    between atoms: C3_25  and  C7_26 
ROOT
ATOM      1  C1  MOL d          27.916   3.709   5.095  0.00  0.00     0.035 A 
ATOM      2  C2  MOL d          26.568   3.408   5.275  0.00  0.00     0.047 A 
ATOM      3  C6  MOL d          28.271   5.007   4.743  0.00  0.00     0.031 A 
ATOM      4  C5  MOL d          27.285   5.975   4.587  0.00  0.00     0.026 A 
ATOM      5  C4  MOL d          25.942   5.659   4.772  0.00  0.00     0.059 A 
ATOM      6  C8  MOL d          25.013   6.737   4.616  0.00  0.00     0.100 C 
ATOM      7  N8  MOL d          24.286   7.602   4.483  0.00  0.00    -0.191 NA
ATOM      8  C3  MOL d          25.556   4.358   5.112  0.00  0.00     0.070 A 
ENDROOT
BRANCH   8   9
ATOM      9  C7  MOL d          24.090   3.925   5.301  0.00  0.00     0.419 C 
ATOM     10  F7B MOL d          24.037   2.878   6.119  0.00  0.00    -0.166 F 
ATOM     11  F7C MOL d          23.298   4.867   5.807  0.00  0.00    -0.166 F 
ATOM     12  F7A MOL d          23.519   3.571   4.152  0.00  0.00    -0.166 F 
ENDBRANCH   8   9
BRANCH   1  13
ATOM     13  N9  MOL d          28.884   2.793   5.137  0.00  0.00    -0.325 N 
ATOM     14  C10 MOL d          29.138   1.968   6.149  0.00  0.00     0.257 C 
ATOM     15  O10 MOL d          28.595   2.014   7.253  0.00  0.00    -0.270 OA
ATOM     16  H11 MOL d          29.474   2.719   4.333  0.00  0.00     0.169 HD
BRANCH  14  17
ATOM     17  C11 MOL d          30.293   0.997   5.888  0.00  0.00     0.148 C 
ATOM     18  C12 MOL d          31.580   1.592   6.463  0.00  0.00     0.057 C 
BRANCH  17  19
ATOM     19  C13 MOL d          30.448   0.752   4.385  0.00  0.00     0.193 C 
BRANCH  19  20
ATOM     20  S14 MOL d          29.394  -0.586   3.712  0.00  0.00     0.178 S 
ATOM     21  O14 MOL d          29.556  -1.831   4.534  0.00  0.00    -0.222 OA
ATOM     22  O15 MOL d          29.786  -0.864   2.291  0.00  0.00    -0.222 OA
BRANCH  20  23
ATOM     23  C15 MOL d          27.722  -0.079   3.769  0.00  0.00     0.059 A 
ATOM     24  C16 MOL d          27.197   0.726   2.761  0.00  0.00     0.026 A 
ATOM     25  C17 MOL d          25.860   1.109   2.802  0.00  0.00     0.044 A 
ATOM     26  C18 MOL d          25.049   0.685   3.851  0.00  0.00     0.116 A 
ATOM     27  F18 MOL d          23.753   1.051   3.897  0.00  0.00    -0.206 F 
ATOM     28  C19 MOL d          25.573  -0.120   4.857  0.00  0.00     0.044 A 
ATOM     29  C20 MOL d          26.911  -0.502   4.817  0.00  0.00     0.026 A 
ENDBRANCH  20  23
ENDBRANCH  19  20
ENDBRANCH  17  19
BRANCH  17  30
ATOM     30  O11 MOL d          30.000  -0.242   6.539  0.00  0.00    -0.380 OA
ATOM     31  H7  MOL d          30.155  -0.153   7.472  0.00  0.00     0.211 HD
ENDBRANCH  17  30
ENDBRANCH  14  17
ENDBRANCH   1  13
TORSDOF 7
ENDMDL
MODEL 4
REMARK VINA RESULT:      -8.1      2.748      7.461
REMARK  7 active torsions:
REMARK  status: ('A' for Active; 'I' for Inactive)
REMARK    1  A    between atoms: C15_7  and  S14_8 
REMARK    2  A    between atoms: S14_8  and  C13_11 
REMARK    3  A    between atoms: C13_11  and  C11_12 
REMARK    4  A    between atoms: C11_12  and  O11_13 
REMARK    5  A    between atoms: C11_12  and  C10_15 
REMARK       I    between atoms: C10_15  and  N9_17 
REMARK    6  A    between atoms: N9_17  and  C1_18 
REMARK    7  A    between atoms: C3_25  and  C7_26 
ROOT
ATOM      1  C1  MOL d          29.848   0.483   7.047  0.00  0.00     0.035 A 
ATOM      2  C2  MOL d          29.204   0.663   8.269  0.00  0.00     0.047 A 
ATOM      3  C6  MOL d          31.231   0.338   7.032  0.00  0.00     0.031 A 
ATOM      4  C5  MOL d          31.941   0.365   8.228  0.00  0.00     0.026 A 
ATOM      5  C4  MOL d          31.283   0.544   9.442  0.00  0.00     0.059 A 
ATOM      6  C8  MOL d          32.106   0.526  10.613  0.00  0.00     0.100 C 
ATOM      7  N8  MOL d          32.774   0.516  11.535  0.00  0.00    -0.191 NA
ATOM      8  C3  MOL d          29.894   0.707   9.483  0.00  0.00     0.070 A 
ENDROOT
BRANCH   8   9
ATOM      9  C7  MOL d          29.102   0.942  10.783  0.00  0.00     0.419 C 
ATOM     10  F7B MOL d          28.706  -0.227  11.280  0.00  0.00    -0.166 F 
ATOM     11  F7C MOL d          29.782   1.572  11.737  0.00  0.00    -0.166 F 
ATOM     12  F7A MOL d          28.016   1.685  10.582  0.00  0.00    -0.166 F 
ENDBRANCH   8   9
BRANCH   1  13
ATOM     13  N9  MOL d          29.221   0.549   5.872  0.00  0.00    -0.325 N 
ATOM     14  C10 MOL d          29.238  -0.382   4.921  0.00  0.00     0.257 C 
ATOM     15  O10 MOL d          29.941  -1.392   4.933  0.00  0.00    -0.270 OA
ATOM     16  H11 MOL d          28.688   1.375   5.687  0.00  0.00     0.169 HD
BRANCH  14  17
ATOM     17  C11 MOL d          28.387  -0.038   3.695  0.00  0.00     0.148 C 
ATOM     18  C12 MOL d          29.230  -0.245   2.435  0.00  0.00     0.057 C 
BRANCH  17  19
ATOM     19  C13 MOL d          27.902   1.412   3.778  0.00  0.00     0.193 C 
BRANCH  19  20
ATOM     20  S14 MOL d          26.082   1.612   3.816  0.00  0.00     0.178 S 
ATOM     21  O14 MOL d          25.493   0.759   4.901  0.00  0.00    -0.222 OA
ATOM     22  O15 MOL d          25.508   1.211   2.490  0.00  0.00    -0.222 OA
BRANCH  20  23
ATOM     23  C15 MOL d          25.699   3.287   4.137  0.00  0.00     0.059 A 
ATOM     24  C16 MOL d          26.620   4.288   3.841  0.00  0.00     0.026 A 
ATOM     25  C17 MOL d          26.301   5.621   4.081  0.00  0.00     0.044 A 
ATOM     26  C18 MOL d          25.059   5.951   4.614  0.00  0.00     0.116 A 
ATOM     27  F18 MOL d          24.741   7.240   4.849  0.00  0.00    -0.206 F 
ATOM     28  C19 MOL d          24.138   4.951   4.909  0.00  0.00     0.044 A 
ATOM     29  C20 MOL d          24.458   3.619   4.671  0.00  0.00     0.026 A 
ENDBRANCH  20  23
ENDBRANCH  19  20
ENDBRANCH  17  19
BRANCH  17  30
ATOM     30  O11 MOL d          27.255  -0.912   3.669  0.00  0.00    -0.380 OA
ATOM     31  H7  MOL d          26.473  -0.422   3.894  0.00  0.00     0.211 HD
ENDBRANCH  17  30
ENDBRANCH  14  17
ENDBRANCH   1  13
TORSDOF 7
ENDMDL
