MODEL 1
REMARK VINA RESULT:      -8.5      0.000      0.000
REMARK  5 active torsions:
REMARK  status: ('A' for Active; 'I' for Inactive)
REMARK    1  A    between atoms: C4_18  and  N9_17 
REMARK    2  A    between atoms: N9_17  and  C8_24 
REMARK    3  A    between atoms: C1_21  and  C18_22 
REMARK    4  A    between atoms: C8_24  and  C23_23 
REMARK    5  A    between atoms: C23_23  and  O24_25 
ROOT
ATOM      1  C2  PFQ d          13.230  -0.351  10.052  0.00  0.00     0.238 A 
ATOM      2  C10 PFQ d          17.364  -2.016   9.611  0.00  0.00     0.100 A 
ATOM      3  C11 PFQ d          18.688  -2.188   9.215  0.00  0.00    -0.001 A 
ATOM      4  C12 PFQ d          19.471  -3.291   9.549  0.00  0.00     0.014 A 
ATOM      5  C13 PFQ d          20.785  -3.351   9.082  0.00  0.00     0.001 A 
ATOM      6  C14 PFQ d          21.304  -2.328   8.287  0.00  0.00     0.000 A 
ATOM      7  C15 PFQ d          20.522  -1.221   7.956  0.00  0.00     0.001 A 
ATOM      8  C16 PFQ d          19.214  -1.180   8.410  0.00  0.00     0.014 A 
ATOM      9  N1  PFQ d          14.391  -0.131   9.456  0.00  0.00    -0.217 NA
ATOM     10  C6  PFQ d          15.420  -0.972   9.637  0.00  0.00     0.186 A 
ATOM     11  O6  PFQ d          16.684  -0.940   9.138  0.00  0.00    -0.289 OA
ATOM     12  C5  PFQ d          15.287  -2.091  10.457  0.00  0.00     0.077 A 
ATOM     13  C4  PFQ d          14.044  -2.289  11.068  0.00  0.00     0.140 A 
ATOM     14  N3  PFQ d          13.061  -1.400  10.835  0.00  0.00    -0.224 NA
ATOM     15  C1  PFQ d          16.519  -2.757  10.446  0.00  0.00     0.027 A 
ENDROOT
BRANCH  15  16
ATOM     16  C18 PFQ d          16.770  -3.940  11.161  0.00  0.00    -0.022 A 
ATOM     17  C19 PFQ d          16.663  -5.176  10.513  0.00  0.00     0.012 A 
ATOM     18  C20 PFQ d          16.871  -6.383  11.185  0.00  0.00     0.001 A 
ATOM     19  C21 PFQ d          17.191  -6.353  12.544  0.00  0.00     0.000 A 
ATOM     20  C22 PFQ d          17.293  -5.113  13.201  0.00  0.00     0.001 A 
ATOM     21  C17 PFQ d          17.081  -3.908  12.522  0.00  0.00     0.012 A 
ENDBRANCH  15  16
BRANCH  13  22
ATOM     22  N9  PFQ d          13.799  -3.324  11.880  0.00  0.00    -0.372 N 
ATOM     23  H11 PFQ d          14.560  -3.974  12.120  0.00  0.00     0.161 HD
BRANCH  22  24
ATOM     24  C8  PFQ d          12.447  -3.540  12.433  0.00  0.00     0.147 C 
BRANCH  24  25
ATOM     25  C23 PFQ d          12.330  -2.888  13.819  0.00  0.00     0.183 C 
BRANCH  25  26
ATOM     26  O24 PFQ d          11.624  -1.644  13.715  0.00  0.00    -0.399 OA
ATOM     27  H17 PFQ d          10.817  -1.697  14.214  0.00  0.00     0.209 HD
ENDBRANCH  25  26
ENDBRANCH  24  25
ENDBRANCH  22  24
ENDBRANCH  13  22
TORSDOF 5
ENDMDL
MODEL 2
REMARK VINA RESULT:      -8.4      3.012      4.973
REMARK  5 active torsions:
REMARK  status: ('A' for Active; 'I' for Inactive)
REMARK    1  A    between atoms: C4_18  and  N9_17 
REMARK    2  A    between atoms: N9_17  and  C8_24 
REMARK    3  A    between atoms: C1_21  and  C18_22 
REMARK    4  A    between atoms: C8_24  and  C23_23 
REMARK    5  A    between atoms: C23_23  and  O24_25 
ROOT
ATOM      1  C2  PFQ d          17.391  -7.455  12.480  0.00  0.00     0.238 A 
ATOM      2  C10 PFQ d          16.210  -3.468  10.819  0.00  0.00     0.100 A 
ATOM      3  C11 PFQ d          16.226  -2.273  10.106  0.00  0.00    -0.001 A 
ATOM      4  C12 PFQ d          15.260  -1.275  10.221  0.00  0.00     0.014 A 
ATOM      5  C13 PFQ d          15.393  -0.115   9.455  0.00  0.00     0.001 A 
ATOM      6  C14 PFQ d          16.480   0.047   8.595  0.00  0.00     0.000 A 
ATOM      7  C15 PFQ d          17.446  -0.953   8.475  0.00  0.00     0.001 A 
ATOM      8  C16 PFQ d          17.312  -2.092   9.253  0.00  0.00     0.014 A 
ATOM      9  N1  PFQ d          17.800  -6.497  11.664  0.00  0.00    -0.217 NA
ATOM     10  C6  PFQ d          17.049  -5.403  11.469  0.00  0.00     0.186 A 
ATOM     11  O6  PFQ d          17.263  -4.314  10.684  0.00  0.00    -0.289 OA
ATOM     12  C5  PFQ d          15.824  -5.256  12.119  0.00  0.00     0.077 A 
ATOM     13  C4  PFQ d          15.428  -6.291  12.973  0.00  0.00     0.140 A 
ATOM     14  N3  PFQ d          16.239  -7.355  13.118  0.00  0.00    -0.224 NA
ATOM     15  C1  PFQ d          15.286  -4.031  11.708  0.00  0.00     0.027 A 
ENDROOT
BRANCH  15  16
ATOM     16  C18 PFQ d          14.051  -3.534  12.158  0.00  0.00    -0.022 A 
ATOM     17  C19 PFQ d          12.898  -3.753  11.396  0.00  0.00     0.012 A 
ATOM     18  C20 PFQ d          11.651  -3.254  11.782  0.00  0.00     0.001 A 
ATOM     19  C21 PFQ d          11.556  -2.513  12.961  0.00  0.00     0.000 A 
ATOM     20  C22 PFQ d          12.714  -2.285  13.727  0.00  0.00     0.001 A 
ATOM     21  C17 PFQ d          13.959  -2.786  13.333  0.00  0.00     0.012 A 
ENDBRANCH  15  16
BRANCH  13  22
ATOM     22  N9  PFQ d          14.273  -6.265  13.646  0.00  0.00    -0.372 N 
ATOM     23  H11 PFQ d          13.430  -5.879  13.197  0.00  0.00     0.161 HD
BRANCH  22  24
ATOM     24  C8  PFQ d          14.196  -6.783  15.026  0.00  0.00     0.147 C 
BRANCH  24  25
ATOM     25  C23 PFQ d          14.600  -5.691  16.028  0.00  0.00     0.183 C 
BRANCH  25  26
ATOM     26  O24 PFQ d          14.180  -6.059  17.348  0.00  0.00    -0.399 OA
ATOM     27  H17 PFQ d          14.664  -5.550  17.987  0.00  0.00     0.209 HD
ENDBRANCH  25  26
ENDBRANCH  24  25
ENDBRANCH  22  24
ENDBRANCH  13  22
TORSDOF 5
ENDMDL
MODEL 3
REMARK VINA RESULT:      -8.2      2.862      5.669
REMARK  5 active torsions:
REMARK  status: ('A' for Active; 'I' for Inactive)
REMARK    1  A    between atoms: C4_18  and  N9_17 
REMARK    2  A    between atoms: N9_17  and  C8_24 
REMARK    3  A    between atoms: C1_21  and  C18_22 
REMARK    4  A    between atoms: C8_24  and  C23_23 
REMARK    5  A    between atoms: C23_23  and  O24_25 
ROOT
ATOM      1  C2  PFQ d          20.653  -1.607   8.141  0.00  0.00     0.238 A 
ATOM      2  C10 PFQ d          16.588  -2.032   9.970  0.00  0.00     0.100 A 
ATOM      3  C11 PFQ d          15.260  -1.798  10.317  0.00  0.00    -0.001 A 
ATOM      4  C12 PFQ d          14.542  -2.557  11.238  0.00  0.00     0.014 A 
ATOM      5  C13 PFQ d          13.215  -2.215  11.506  0.00  0.00     0.001 A 
ATOM      6  C14 PFQ d          12.620  -1.125  10.870  0.00  0.00     0.000 A 
ATOM      7  C15 PFQ d          13.337  -0.366   9.943  0.00  0.00     0.001 A 
ATOM      8  C16 PFQ d          14.658  -0.705   9.698  0.00  0.00     0.014 A 
ATOM      9  N1  PFQ d          19.462  -1.034   8.193  0.00  0.00    -0.217 NA
ATOM     10  C6  PFQ d          18.481  -1.567   8.936  0.00  0.00     0.186 A 
ATOM     11  O6  PFQ d          17.199  -1.159   9.130  0.00  0.00    -0.289 OA
ATOM     12  C5  PFQ d          18.697  -2.736   9.665  0.00  0.00     0.077 A 
ATOM     13  C4  PFQ d          19.970  -3.311   9.583  0.00  0.00     0.140 A 
ATOM     14  N3  PFQ d          20.901  -2.714   8.817  0.00  0.00    -0.224 NA
ATOM     15  C1  PFQ d          17.497  -3.037  10.321  0.00  0.00     0.027 A 
ENDROOT
BRANCH  15  16
ATOM     16  C18 PFQ d          17.329  -4.152  11.159  0.00  0.00    -0.022 A 
ATOM     17  C19 PFQ d          16.932  -5.377  10.610  0.00  0.00     0.012 A 
ATOM     18  C20 PFQ d          16.721  -6.508  11.402  0.00  0.00     0.001 A 
ATOM     19  C21 PFQ d          16.906  -6.411  12.783  0.00  0.00     0.000 A 
ATOM     20  C22 PFQ d          17.298  -5.179  13.340  0.00  0.00     0.001 A 
ATOM     21  C17 PFQ d          17.507  -4.050  12.541  0.00  0.00     0.012 A 
ENDBRANCH  15  16
BRANCH  13  22
ATOM     22  N9  PFQ d          20.292  -4.435  10.233  0.00  0.00    -0.372 N 
ATOM     23  H11 PFQ d          19.996  -5.346   9.855  0.00  0.00     0.161 HD
BRANCH  22  24
ATOM     24  C8  PFQ d          21.070  -4.380  11.487  0.00  0.00     0.147 C 
BRANCH  24  25
ATOM     25  C23 PFQ d          21.166  -5.779  12.114  0.00  0.00     0.183 C 
BRANCH  25  26
ATOM     26  O24 PFQ d          20.234  -6.664  11.479  0.00  0.00    -0.399 OA
ATOM     27  H17 PFQ d          20.336  -7.539  11.836  0.00  0.00     0.209 HD
ENDBRANCH  25  26
ENDBRANCH  24  25
ENDBRANCH  22  24
ENDBRANCH  13  22
TORSDOF 5
ENDMDL
MODEL 4
REMARK VINA RESULT:      -8.0      2.707      6.850
REMARK  5 active torsions:
REMARK  status: ('A' for Active; 'I' for Inactive)
REMARK    1  A    between atoms: C4_18  and  N9_17 
REMARK    2  A    between atoms: N9_17  and  C8_24 
REMARK    3  A    between atoms: C1_21  and  C18_22 
REMARK    4  A    between atoms: C8_24  and  C23_23 
REMARK    5  A    between atoms: C23_23  and  O24_25 
ROOT
ATOM      1  C2  PFQ d          16.856  -7.186  12.474  0.00  0.00     0.238 A 
ATOM      2  C10 PFQ d          14.566  -3.358  12.070  0.00  0.00     0.100 A 
ATOM      3  C11 PFQ d          13.590  -2.377  12.218  0.00  0.00    -0.001 A 
ATOM      4  C12 PFQ d          13.566  -1.179  11.505  0.00  0.00     0.014 A 
ATOM      5  C13 PFQ d          12.526  -0.277  11.739  0.00  0.00     0.001 A 
ATOM      6  C14 PFQ d          11.522  -0.573  12.662  0.00  0.00     0.000 A 
ATOM      7  C15 PFQ d          11.548  -1.770  13.379  0.00  0.00     0.001 A 
ATOM      8  C16 PFQ d          12.575  -2.665  13.127  0.00  0.00     0.014 A 
ATOM      9  N1  PFQ d          15.761  -6.570  12.891  0.00  0.00    -0.217 NA
ATOM     10  C6  PFQ d          15.469  -5.334  12.460  0.00  0.00     0.186 A 
ATOM     11  O6  PFQ d          14.421  -4.521  12.756  0.00  0.00    -0.289 OA
ATOM     12  C5  PFQ d          16.313  -4.674  11.568  0.00  0.00     0.077 A 
ATOM     13  C4  PFQ d          17.460  -5.360  11.151  0.00  0.00     0.140 A 
ATOM     14  N3  PFQ d          17.681  -6.598  11.627  0.00  0.00    -0.224 NA
ATOM     15  C1  PFQ d          15.746  -3.419  11.319  0.00  0.00     0.027 A 
ENDROOT
BRANCH  15  16
ATOM     16  C18 PFQ d          16.316  -2.465  10.459  0.00  0.00    -0.022 A 
ATOM     17  C19 PFQ d          17.332  -1.626  10.932  0.00  0.00     0.012 A 
ATOM     18  C20 PFQ d          17.911  -0.641  10.128  0.00  0.00     0.001 A 
ATOM     19  C21 PFQ d          17.459  -0.487   8.816  0.00  0.00     0.000 A 
ATOM     20  C22 PFQ d          16.433  -1.324   8.339  0.00  0.00     0.001 A 
ATOM     21  C17 PFQ d          15.857  -2.307   9.150  0.00  0.00     0.012 A 
ENDBRANCH  15  16
BRANCH  13  22
ATOM     22  N9  PFQ d          18.346  -4.827  10.302  0.00  0.00    -0.372 N 
ATOM     23  H11 PFQ d          18.132  -4.795   9.295  0.00  0.00     0.161 HD
BRANCH  22  24
ATOM     24  C8  PFQ d          19.626  -4.284  10.796  0.00  0.00     0.147 C 
BRANCH  24  25
ATOM     25  C23 PFQ d          20.309  -3.452   9.700  0.00  0.00     0.183 C 
BRANCH  25  26
ATOM     26  O24 PFQ d          21.424  -4.174   9.162  0.00  0.00    -0.399 OA
ATOM     27  H17 PFQ d          22.233  -3.793   9.485  0.00  0.00     0.209 HD
ENDBRANCH  25  26
ENDBRANCH  24  25
ENDBRANCH  22  24
ENDBRANCH  13  22
TORSDOF 5
ENDMDL
MODEL 5
REMARK VINA RESULT:      -7.6      2.164      5.785
REMARK  5 active torsions:
REMARK  status: ('A' for Active; 'I' for Inactive)
REMARK    1  A    between atoms: C4_18  and  N9_17 
REMARK    2  A    between atoms: N9_17  and  C8_24 
REMARK    3  A    between atoms: C1_21  and  C18_22 
REMARK    4  A    between atoms: C8_24  and  C23_23 
REMARK    5  A    between atoms: C23_23  and  O24_25 
ROOT
ATOM      1  C2  PFQ d          11.677  -2.125  13.042  0.00  0.00     0.238 A 
ATOM      2  C10 PFQ d          14.649  -5.445  13.486  0.00  0.00     0.100 A 
ATOM      3  C11 PFQ d          15.254  -6.639  13.868  0.00  0.00    -0.001 A 
ATOM      4  C12 PFQ d          16.570  -6.985  13.569  0.00  0.00     0.014 A 
ATOM      5  C13 PFQ d          17.064  -8.212  14.017  0.00  0.00     0.001 A 
ATOM      6  C14 PFQ d          16.256  -9.074  14.760  0.00  0.00     0.000 A 
ATOM      7  C15 PFQ d          14.936  -8.730  15.057  0.00  0.00     0.001 A 
ATOM      8  C16 PFQ d          14.463  -7.503  14.622  0.00  0.00     0.014 A 
ATOM      9  N1  PFQ d          11.850  -3.307  13.609  0.00  0.00    -0.217 NA
ATOM     10  C6  PFQ d          13.000  -3.978  13.448  0.00  0.00     0.186 A 
ATOM     11  O6  PFQ d          13.390  -5.190  13.925  0.00  0.00    -0.289 OA
ATOM     12  C5  PFQ d          14.033  -3.444  12.678  0.00  0.00     0.077 A 
ATOM     13  C4  PFQ d          13.810  -2.191  12.095  0.00  0.00     0.140 A 
ATOM     14  N3  PFQ d          12.629  -1.581  12.306  0.00  0.00    -0.224 NA
ATOM     15  C1  PFQ d          15.081  -4.372  12.697  0.00  0.00     0.027 A 
ENDROOT
BRANCH  15  16
ATOM     16  C18 PFQ d          16.301  -4.179  12.028  0.00  0.00    -0.022 A 
ATOM     17  C19 PFQ d          17.369  -3.570  12.698  0.00  0.00     0.012 A 
ATOM     18  C20 PFQ d          18.593  -3.327  12.070  0.00  0.00     0.001 A 
ATOM     19  C21 PFQ d          18.753  -3.700  10.734  0.00  0.00     0.000 A 
ATOM     20  C22 PFQ d          17.680  -4.307  10.055  0.00  0.00     0.001 A 
ATOM     21  C17 PFQ d          16.457  -4.546  10.690  0.00  0.00     0.012 A 
ENDBRANCH  15  16
BRANCH  13  22
ATOM     22  N9  PFQ d          14.724  -1.582  11.332  0.00  0.00    -0.372 N 
ATOM     23  H11 PFQ d          15.573  -1.193  11.765  0.00  0.00     0.161 HD
BRANCH  22  24
ATOM     24  C8  PFQ d          14.525  -1.463   9.874  0.00  0.00     0.147 C 
BRANCH  24  25
ATOM     25  C23 PFQ d          15.685  -0.680   9.241  0.00  0.00     0.183 C 
BRANCH  25  26
ATOM     26  O24 PFQ d          15.374   0.719   9.215  0.00  0.00    -0.399 OA
ATOM     27  H17 PFQ d          15.090   0.963   8.342  0.00  0.00     0.209 HD
ENDBRANCH  25  26
ENDBRANCH  24  25
ENDBRANCH  22  24
ENDBRANCH  13  22
TORSDOF 5
ENDMDL
MODEL 6
REMARK VINA RESULT:      -7.5      3.523      6.932
REMARK  5 active torsions:
REMARK  status: ('A' for Active; 'I' for Inactive)
REMARK    1  A    between atoms: C4_18  and  N9_17 
REMARK    2  A    between atoms: N9_17  and  C8_24 
REMARK    3  A    between atoms: C1_21  and  C18_22 
REMARK    4  A    between atoms: C8_24  and  C23_23 
REMARK    5  A    between atoms: C23_23  and  O24_25 
ROOT
ATOM      1  C2  PFQ d          15.241  -7.291  16.355  0.00  0.00     0.238 A 
ATOM      2  C10 PFQ d          14.286  -3.877  13.618  0.00  0.00     0.100 A 
ATOM      3  C11 PFQ d          13.637  -2.801  13.020  0.00  0.00    -0.001 A 
ATOM      4  C12 PFQ d          14.077  -2.164  11.861  0.00  0.00     0.014 A 
ATOM      5  C13 PFQ d          13.332  -1.097  11.354  0.00  0.00     0.001 A 
ATOM      6  C14 PFQ d          12.162  -0.682  11.990  0.00  0.00     0.000 A 
ATOM      7  C15 PFQ d          11.723  -1.317  13.153  0.00  0.00     0.001 A 
ATOM      8  C16 PFQ d          12.461  -2.384  13.638  0.00  0.00     0.014 A 
ATOM      9  N1  PFQ d          14.332  -6.358  16.120  0.00  0.00    -0.217 NA
ATOM     10  C6  PFQ d          14.489  -5.494  15.107  0.00  0.00     0.186 A 
ATOM     11  O6  PFQ d          13.700  -4.468  14.691  0.00  0.00    -0.289 OA
ATOM     12  C5  PFQ d          15.614  -5.559  14.285  0.00  0.00     0.077 A 
ATOM     13  C4  PFQ d          16.551  -6.560  14.567  0.00  0.00     0.140 A 
ATOM     14  N3  PFQ d          16.319  -7.390  15.600  0.00  0.00    -0.224 NA
ATOM     15  C1  PFQ d          15.491  -4.534  13.339  0.00  0.00     0.027 A 
ENDROOT
BRANCH  15  16
ATOM     16  C18 PFQ d          16.440  -4.287  12.334  0.00  0.00    -0.022 A 
ATOM     17  C19 PFQ d          17.505  -3.415  12.586  0.00  0.00     0.012 A 
ATOM     18  C20 PFQ d          18.458  -3.110  11.611  0.00  0.00     0.001 A 
ATOM     19  C21 PFQ d          18.341  -3.691  10.347  0.00  0.00     0.000 A 
ATOM     20  C22 PFQ d          17.268  -4.563  10.087  0.00  0.00     0.001 A 
ATOM     21  C17 PFQ d          16.316  -4.862  11.067  0.00  0.00     0.012 A 
ENDBRANCH  15  16
BRANCH  13  22
ATOM     22  N9  PFQ d          17.670  -6.717  13.851  0.00  0.00    -0.372 N 
ATOM     23  H11 PFQ d          18.448  -6.053  13.969  0.00  0.00     0.161 HD
BRANCH  22  24
ATOM     24  C8  PFQ d          17.799  -7.834  12.895  0.00  0.00     0.147 C 
BRANCH  24  25
ATOM     25  C23 PFQ d          18.877  -8.819  13.370  0.00  0.00     0.183 C 
BRANCH  25  26
ATOM     26  O24 PFQ d          18.628 -10.119  12.819  0.00  0.00    -0.399 OA
ATOM     27  H17 PFQ d          19.396 -10.665  12.937  0.00  0.00     0.209 HD
ENDBRANCH  25  26
ENDBRANCH  24  25
ENDBRANCH  22  24
ENDBRANCH  13  22
TORSDOF 5
ENDMDL
MODEL 7
REMARK VINA RESULT:      -7.4      1.736      2.463
REMARK  5 active torsions:
REMARK  status: ('A' for Active; 'I' for Inactive)
REMARK    1  A    between atoms: C4_18  and  N9_17 
REMARK    2  A    between atoms: N9_17  and  C8_24 
REMARK    3  A    between atoms: C1_21  and  C18_22 
REMARK    4  A    between atoms: C8_24  and  C23_23 
REMARK    5  A    between atoms: C23_23  and  O24_25 
ROOT
ATOM      1  C2  PFQ d          15.765   0.014   9.014  0.00  0.00     0.238 A 
ATOM      2  C10 PFQ d          18.820  -2.789  10.707  0.00  0.00     0.100 A 
ATOM      3  C11 PFQ d          20.036  -3.372  11.050  0.00  0.00    -0.001 A 
ATOM      4  C12 PFQ d          20.165  -4.605  11.687  0.00  0.00     0.014 A 
ATOM      5  C13 PFQ d          21.444  -5.087  11.970  0.00  0.00     0.001 A 
ATOM      6  C14 PFQ d          22.576  -4.352  11.613  0.00  0.00     0.000 A 
ATOM      7  C15 PFQ d          22.448  -3.116  10.979  0.00  0.00     0.001 A 
ATOM      8  C16 PFQ d          21.174  -2.655  10.688  0.00  0.00     0.014 A 
ATOM      9  N1  PFQ d          17.070  -0.173   9.121  0.00  0.00    -0.217 NA
ATOM     10  C6  PFQ d          17.554  -1.243   9.769  0.00  0.00     0.186 A 
ATOM     11  O6  PFQ d          18.836  -1.628  10.003  0.00  0.00    -0.289 OA
ATOM     12  C5  PFQ d          16.691  -2.176  10.343  0.00  0.00     0.077 A 
ATOM     13  C4  PFQ d          15.318  -1.943  10.207  0.00  0.00     0.140 A 
ATOM     14  N3  PFQ d          14.913  -0.846   9.541  0.00  0.00    -0.224 NA
ATOM     15  C1  PFQ d          17.490  -3.159  10.942  0.00  0.00     0.027 A 
ENDROOT
BRANCH  15  16
ATOM     16  C18 PFQ d          16.971  -4.273  11.623  0.00  0.00    -0.022 A 
ATOM     17  C19 PFQ d          16.710  -4.185  12.995  0.00  0.00     0.012 A 
ATOM     18  C20 PFQ d          16.224  -5.272  13.726  0.00  0.00     0.001 A 
ATOM     19  C21 PFQ d          15.996  -6.482  13.066  0.00  0.00     0.000 A 
ATOM     20  C22 PFQ d          16.264  -6.576  11.688  0.00  0.00     0.001 A 
ATOM     21  C17 PFQ d          16.752  -5.484  10.963  0.00  0.00     0.012 A 
ENDBRANCH  15  16
BRANCH  13  22
ATOM     22  N9  PFQ d          14.396  -2.764  10.720  0.00  0.00    -0.372 N 
ATOM     23  H11 PFQ d          14.209  -3.669  10.265  0.00  0.00     0.161 HD
BRANCH  22  24
ATOM     24  C8  PFQ d          13.644  -2.385  11.932  0.00  0.00     0.147 C 
BRANCH  24  25
ATOM     25  C23 PFQ d          12.990  -3.625  12.562  0.00  0.00     0.183 C 
BRANCH  25  26
ATOM     26  O24 PFQ d          11.588  -3.643  12.263  0.00  0.00    -0.399 OA
ATOM     27  H17 PFQ d          11.465  -3.810  11.336  0.00  0.00     0.209 HD
ENDBRANCH  25  26
ENDBRANCH  24  25
ENDBRANCH  22  24
ENDBRANCH  13  22
TORSDOF 5
ENDMDL
MODEL 8
REMARK VINA RESULT:      -7.3      4.144      6.265
REMARK  5 active torsions:
REMARK  status: ('A' for Active; 'I' for Inactive)
REMARK    1  A    between atoms: C4_18  and  N9_17 
REMARK    2  A    between atoms: N9_17  and  C8_24 
REMARK    3  A    between atoms: C1_21  and  C18_22 
REMARK    4  A    between atoms: C8_24  and  C23_23 
REMARK    5  A    between atoms: C23_23  and  O24_25 
ROOT
ATOM      1  C2  PFQ d          23.021  -4.774  11.575  0.00  0.00     0.238 A 
ATOM      2  C10 PFQ d          18.972  -3.218  10.461  0.00  0.00     0.100 A 
ATOM      3  C11 PFQ d          17.958  -2.438   9.913  0.00  0.00    -0.001 A 
ATOM      4  C12 PFQ d          16.600  -2.628  10.162  0.00  0.00     0.014 A 
ATOM      5  C13 PFQ d          15.678  -1.771   9.557  0.00  0.00     0.001 A 
ATOM      6  C14 PFQ d          16.109  -0.737   8.724  0.00  0.00     0.000 A 
ATOM      7  C15 PFQ d          17.468  -0.550   8.471  0.00  0.00     0.001 A 
ATOM      8  C16 PFQ d          18.375  -1.395   9.090  0.00  0.00     0.014 A 
ATOM      9  N1  PFQ d          22.419  -3.814  10.893  0.00  0.00    -0.217 NA
ATOM     10  C6  PFQ d          21.080  -3.749  10.846  0.00  0.00     0.186 A 
ATOM     11  O6  PFQ d          20.261  -2.868  10.213  0.00  0.00    -0.289 OA
ATOM     12  C5  PFQ d          20.299  -4.693  11.511  0.00  0.00     0.077 A 
ATOM     13  C4  PFQ d          20.974  -5.692  12.221  0.00  0.00     0.140 A 
ATOM     14  N3  PFQ d          22.320  -5.687  12.221  0.00  0.00    -0.224 NA
ATOM     15  C1  PFQ d          18.960  -4.362  11.269  0.00  0.00     0.027 A 
ENDROOT
BRANCH  15  16
ATOM     16  C18 PFQ d          17.874  -5.091  11.782  0.00  0.00    -0.022 A 
ATOM     17  C19 PFQ d          17.322  -4.732  13.017  0.00  0.00     0.012 A 
ATOM     18  C20 PFQ d          16.262  -5.442  13.587  0.00  0.00     0.001 A 
ATOM     19  C21 PFQ d          15.743  -6.544  12.905  0.00  0.00     0.000 A 
ATOM     20  C22 PFQ d          16.299  -6.912  11.666  0.00  0.00     0.001 A 
ATOM     21  C17 PFQ d          17.361  -6.197  11.102  0.00  0.00     0.012 A 
ENDBRANCH  15  16
BRANCH  13  22
ATOM     22  N9  PFQ d          20.332  -6.654  12.893  0.00  0.00    -0.372 N 
ATOM     23  H11 PFQ d          19.362  -6.500  13.203  0.00  0.00     0.161 HD
BRANCH  22  24
ATOM     24  C8  PFQ d          21.002  -7.935  13.193  0.00  0.00     0.147 C 
BRANCH  24  25
ATOM     25  C23 PFQ d          21.227  -8.075  14.706  0.00  0.00     0.183 C 
BRANCH  25  26
ATOM     26  O24 PFQ d          22.168  -7.090  15.154  0.00  0.00    -0.399 OA
ATOM     27  H17 PFQ d          22.357  -7.230  16.074  0.00  0.00     0.209 HD
ENDBRANCH  25  26
ENDBRANCH  24  25
ENDBRANCH  22  24
ENDBRANCH  13  22
TORSDOF 5
ENDMDL
MODEL 9
REMARK VINA RESULT:      -7.3      3.059      5.740
REMARK  5 active torsions:
REMARK  status: ('A' for Active; 'I' for Inactive)
REMARK    1  A    between atoms: C4_18  and  N9_17 
REMARK    2  A    between atoms: N9_17  and  C8_24 
REMARK    3  A    between atoms: C1_21  and  C18_22 
REMARK    4  A    between atoms: C8_24  and  C23_23 
REMARK    5  A    between atoms: C23_23  and  O24_25 
ROOT
ATOM      1  C2  PFQ d          20.613  -3.085   9.745  0.00  0.00     0.238 A 
ATOM      2  C10 PFQ d          16.315  -2.571  10.892  0.00  0.00     0.100 A 
ATOM      3  C11 PFQ d          15.006  -2.099  10.948  0.00  0.00    -0.001 A 
ATOM      4  C12 PFQ d          14.053  -2.534  11.867  0.00  0.00     0.014 A 
ATOM      5  C13 PFQ d          12.773  -1.976  11.826  0.00  0.00     0.001 A 
ATOM      6  C14 PFQ d          12.457  -0.993  10.888  0.00  0.00     0.000 A 
ATOM      7  C15 PFQ d          13.409  -0.560   9.964  0.00  0.00     0.001 A 
ATOM      8  C16 PFQ d          14.680  -1.108  10.025  0.00  0.00     0.014 A 
ATOM      9  N1  PFQ d          19.534  -2.370   9.473  0.00  0.00    -0.217 NA
ATOM     10  C6  PFQ d          18.385  -2.593  10.128  0.00  0.00     0.186 A 
ATOM     11  O6  PFQ d          17.171  -1.994  10.010  0.00  0.00    -0.289 OA
ATOM     12  C5  PFQ d          18.306  -3.584  11.105  0.00  0.00     0.077 A 
ATOM     13  C4  PFQ d          19.469  -4.318  11.364  0.00  0.00     0.140 A 
ATOM     14  N3  PFQ d          20.582  -4.032  10.665  0.00  0.00    -0.224 NA
ATOM     15  C1  PFQ d          16.993  -3.576  11.592  0.00  0.00     0.027 A 
ENDROOT
BRANCH  15  16
ATOM     16  C18 PFQ d          16.531  -4.441  12.598  0.00  0.00    -0.022 A 
ATOM     17  C19 PFQ d          16.649  -4.067  13.941  0.00  0.00     0.012 A 
ATOM     18  C20 PFQ d          16.234  -4.904  14.981  0.00  0.00     0.001 A 
ATOM     19  C21 PFQ d          15.691  -6.151  14.668  0.00  0.00     0.000 A 
ATOM     20  C22 PFQ d          15.578  -6.535  13.318  0.00  0.00     0.001 A 
ATOM     21  C17 PFQ d          15.996  -5.692  12.283  0.00  0.00     0.012 A 
ENDBRANCH  15  16
BRANCH  13  22
ATOM     22  N9  PFQ d          19.512  -5.296  12.275  0.00  0.00    -0.372 N 
ATOM     23  H11 PFQ d          19.179  -5.117  13.233  0.00  0.00     0.161 HD
BRANCH  22  24
ATOM     24  C8  PFQ d          20.033  -6.631  11.919  0.00  0.00     0.147 C 
BRANCH  24  25
ATOM     25  C23 PFQ d          19.524  -7.684  12.915  0.00  0.00     0.183 C 
BRANCH  25  26
ATOM     26  O24 PFQ d          18.990  -7.038  14.078  0.00  0.00    -0.399 OA
ATOM     27  H17 PFQ d          19.548  -7.221  14.825  0.00  0.00     0.209 HD
ENDBRANCH  25  26
ENDBRANCH  24  25
ENDBRANCH  22  24
ENDBRANCH  13  22
TORSDOF 5
ENDMDL
MODEL 10
REMARK VINA RESULT:      -7.2      2.181      5.971
REMARK  5 active torsions:
REMARK  status: ('A' for Active; 'I' for Inactive)
REMARK    1  A    between atoms: C4_18  and  N9_17 
REMARK    2  A    between atoms: N9_17  and  C8_24 
REMARK    3  A    between atoms: C1_21  and  C18_22 
REMARK    4  A    between atoms: C8_24  and  C23_23 
REMARK    5  A    between atoms: C23_23  and  O24_25 
ROOT
ATOM      1  C2  PFQ d          18.127  -0.840   8.460  0.00  0.00     0.238 A 
ATOM      2  C10 PFQ d          15.100  -2.455  11.339  0.00  0.00     0.100 A 
ATOM      3  C11 PFQ d          13.957  -2.590  12.122  0.00  0.00    -0.001 A 
ATOM      4  C12 PFQ d          13.753  -3.614  13.045  0.00  0.00     0.014 A 
ATOM      5  C13 PFQ d          12.565  -3.635  13.778  0.00  0.00     0.001 A 
ATOM      6  C14 PFQ d          11.601  -2.642  13.596  0.00  0.00     0.000 A 
ATOM      7  C15 PFQ d          11.802  -1.619  12.668  0.00  0.00     0.001 A 
ATOM      8  C16 PFQ d          12.992  -1.599  11.959  0.00  0.00     0.014 A 
ATOM      9  N1  PFQ d          16.947  -0.577   8.998  0.00  0.00    -0.217 NA
ATOM     10  C6  PFQ d          16.398  -1.421   9.884  0.00  0.00     0.186 A 
ATOM     11  O6  PFQ d          15.214  -1.358  10.547  0.00  0.00    -0.289 OA
ATOM     12  C5  PFQ d          17.059  -2.592  10.253  0.00  0.00     0.077 A 
ATOM     13  C4  PFQ d          18.305  -2.834   9.662  0.00  0.00     0.140 A 
ATOM     14  N3  PFQ d          18.788  -1.936   8.784  0.00  0.00    -0.224 NA
ATOM     15  C1  PFQ d          16.238  -3.253  11.174  0.00  0.00     0.027 A 
ENDROOT
BRANCH  15  16
ATOM     16  C18 PFQ d          16.574  -4.478  11.776  0.00  0.00    -0.022 A 
ATOM     17  C19 PFQ d          17.116  -4.490  13.066  0.00  0.00     0.012 A 
ATOM     18  C20 PFQ d          17.496  -5.677  13.698  0.00  0.00     0.001 A 
ATOM     19  C21 PFQ d          17.333  -6.885  13.018  0.00  0.00     0.000 A 
ATOM     20  C22 PFQ d          16.795  -6.877  11.718  0.00  0.00     0.001 A 
ATOM     21  C17 PFQ d          16.419  -5.685  11.091  0.00  0.00     0.012 A 
ENDBRANCH  15  16
BRANCH  13  22
ATOM     22  N9  PFQ d          19.029  -3.925   9.934  0.00  0.00    -0.372 N 
ATOM     23  H11 PFQ d          18.769  -4.828   9.512  0.00  0.00     0.161 HD
BRANCH  22  24
ATOM     24  C8  PFQ d          20.196  -3.846  10.835  0.00  0.00     0.147 C 
BRANCH  24  25
ATOM     25  C23 PFQ d          21.499  -3.902  10.023  0.00  0.00     0.183 C 
BRANCH  25  26
ATOM     26  O24 PFQ d          21.199  -3.990   8.624  0.00  0.00    -0.399 OA
ATOM     27  H17 PFQ d          20.260  -3.916   8.497  0.00  0.00     0.209 HD
ENDBRANCH  25  26
ENDBRANCH  24  25
ENDBRANCH  22  24
ENDBRANCH  13  22
TORSDOF 5
ENDMDL
