MODEL 1
REMARK VINA RESULT:      -9.3      0.000      0.000
REMARK  8 active torsions:
REMARK  status: ('A' for Active; 'I' for Inactive)
REMARK    1  A    between atoms: O6_1  and  C6_2 
REMARK    2  A    between atoms: C6_2  and  C5_3 
REMARK    3  A    between atoms: C4_4  and  O4_5 
REMARK    4  A    between atoms: C3_6  and  O3_7 
REMARK    5  A    between atoms: C2_8  and  O2_9 
REMARK    6  A    between atoms: C7_12  and  C9_15 
REMARK    7  A    between atoms: C9_15  and  C10_16 
REMARK    8  A    between atoms: C10_16  and  C14_17 
ROOT
ATOM      1  C5  PGI d          -0.884   5.765  16.590  0.00  0.00     0.145 C 
ATOM      2  C4  PGI d          -2.192   4.994  16.838  0.00  0.00     0.175 C 
ATOM      3  C3  PGI d          -3.306   6.013  17.152  0.00  0.00     0.185 C 
ATOM      4  C2  PGI d          -3.626   6.887  15.948  0.00  0.00     0.219 C 
ATOM      5  N1  PGI d          -1.170   6.644  15.427  0.00  0.00    -0.332 N 
ATOM      6  C8  PGI d          -0.329   7.013  14.446  0.00  0.00     0.120 A 
ATOM      7  C7  PGI d          -1.072   7.780  13.563  0.00  0.00     0.052 A 
ATOM      8  N2  PGI d          -2.327   7.836  14.028  0.00  0.00    -0.235 NA
ATOM      9  C1  PGI d          -2.384   7.146  15.167  0.00  0.00     0.138 A 
ENDROOT
BRANCH   7  10
ATOM     10  C9  PGI d          -0.585   8.467  12.308  0.00  0.00     0.065 C 
BRANCH  10  11
ATOM     11  C10 PGI d          -1.774   8.807  11.406  0.00  0.00     0.044 C 
BRANCH  11  12
ATOM     12  C14 PGI d          -1.454   9.631  10.159  0.00  0.00    -0.058 A 
ATOM     13  C13 PGI d          -0.206  10.261  10.018  0.00  0.00     0.007 A 
ATOM     14  C12 PGI d           0.111  11.007   8.867  0.00  0.00     0.001 A 
ATOM     15  C11 PGI d          -0.811  11.123   7.822  0.00  0.00     0.000 A 
ATOM     16  C16 PGI d          -2.055  10.492   7.964  0.00  0.00     0.001 A 
ATOM     17  C15 PGI d          -2.378   9.747   9.112  0.00  0.00     0.007 A 
ENDBRANCH  11  12
ENDBRANCH  10  11
ENDBRANCH   7  10
BRANCH   1  18
ATOM     18  C6  PGI d           0.320   4.862  16.340  0.00  0.00     0.192 C 
BRANCH  18  19
ATOM     19  O6  PGI d           0.902   4.338  17.542  0.00  0.00    -0.399 OA
ATOM     20  H1  PGI d           0.625   4.865  18.283  0.00  0.00     0.209 HD
ENDBRANCH  18  19
ENDBRANCH   1  18
BRANCH   4  21
ATOM     21  O2  PGI d          -4.308   8.055  16.380  0.00  0.00    -0.385 OA
ATOM     22  H10 PGI d          -4.998   8.264  15.762  0.00  0.00     0.210 HD
ENDBRANCH   4  21
BRANCH   2  23
ATOM     23  O4  PGI d          -2.048   4.052  17.908  0.00  0.00    -0.391 OA
ATOM     24  H6  PGI d          -2.176   3.172  17.573  0.00  0.00     0.210 HD
ENDBRANCH   2  23
BRANCH   3  25
ATOM     25  O3  PGI d          -4.550   5.438  17.550  0.00  0.00    -0.390 OA
ATOM     26  H8  PGI d          -4.655   4.591  17.130  0.00  0.00     0.210 HD
ENDBRANCH   3  25
TORSDOF 8
ENDMDL
MODEL 2
REMARK VINA RESULT:      -8.9      1.087      2.862
REMARK  8 active torsions:
REMARK  status: ('A' for Active; 'I' for Inactive)
REMARK    1  A    between atoms: O6_1  and  C6_2 
REMARK    2  A    between atoms: C6_2  and  C5_3 
REMARK    3  A    between atoms: C4_4  and  O4_5 
REMARK    4  A    between atoms: C3_6  and  O3_7 
REMARK    5  A    between atoms: C2_8  and  O2_9 
REMARK    6  A    between atoms: C7_12  and  C9_15 
REMARK    7  A    between atoms: C9_15  and  C10_16 
REMARK    8  A    between atoms: C10_16  and  C14_17 
ROOT
ATOM      1  C5  PGI d          -2.573   5.797  16.308  0.00  0.00     0.145 C 
ATOM      2  C4  PGI d          -1.404   5.923  17.301  0.00  0.00     0.175 C 
ATOM      3  C3  PGI d          -0.195   5.154  16.729  0.00  0.00     0.185 C 
ATOM      4  C2  PGI d           0.338   5.805  15.461  0.00  0.00     0.219 C 
ATOM      5  N1  PGI d          -2.076   6.410  15.049  0.00  0.00    -0.332 N 
ATOM      6  C8  PGI d          -2.775   7.114  14.143  0.00  0.00     0.120 A 
ATOM      7  C7  PGI d          -1.864   7.526  13.183  0.00  0.00     0.052 A 
ATOM      8  N2  PGI d          -0.657   7.073  13.544  0.00  0.00    -0.235 NA
ATOM      9  C1  PGI d          -0.788   6.389  14.681  0.00  0.00     0.138 A 
ENDROOT
BRANCH   7  10
ATOM     10  C9  PGI d          -2.149   8.319  11.928  0.00  0.00     0.065 C 
BRANCH  10  11
ATOM     11  C10 PGI d          -1.075   9.393  11.737  0.00  0.00     0.044 C 
BRANCH  11  12
ATOM     12  C14 PGI d          -1.027  10.053  10.359  0.00  0.00    -0.058 A 
ATOM     13  C13 PGI d           0.073  10.842   9.981  0.00  0.00     0.007 A 
ATOM     14  C12 PGI d           0.141  11.441   8.709  0.00  0.00     0.001 A 
ATOM     15  C11 PGI d          -0.886  11.246   7.779  0.00  0.00     0.000 A 
ATOM     16  C16 PGI d          -1.981  10.457   8.158  0.00  0.00     0.001 A 
ATOM     17  C15 PGI d          -2.055   9.858   9.427  0.00  0.00     0.007 A 
ENDBRANCH  11  12
ENDBRANCH  10  11
ENDBRANCH   7  10
BRANCH   1  18
ATOM     18  C6  PGI d          -3.860   6.455  16.793  0.00  0.00     0.192 C 
BRANCH  18  19
ATOM     19  O6  PGI d          -4.697   5.579  17.561  0.00  0.00    -0.399 OA
ATOM     20  H1  PGI d          -5.445   6.064  17.890  0.00  0.00     0.209 HD
ENDBRANCH  18  19
ENDBRANCH   1  18
BRANCH   4  21
ATOM     21  O2  PGI d           1.131   4.868  14.747  0.00  0.00    -0.385 OA
ATOM     22  H10 PGI d           1.701   5.331  14.145  0.00  0.00     0.210 HD
ENDBRANCH   4  21
BRANCH   2  23
ATOM     23  O4  PGI d          -1.760   5.420  18.594  0.00  0.00    -0.391 OA
ATOM     24  H6  PGI d          -2.693   5.236  18.615  0.00  0.00     0.210 HD
ENDBRANCH   2  23
BRANCH   3  25
ATOM     25  O3  PGI d           0.924   5.057  17.610  0.00  0.00    -0.390 OA
ATOM     26  H8  PGI d           1.362   4.224  17.474  0.00  0.00     0.210 HD
ENDBRANCH   3  25
TORSDOF 8
ENDMDL
MODEL 3
REMARK VINA RESULT:      -8.6      1.696      2.345
REMARK  8 active torsions:
REMARK  status: ('A' for Active; 'I' for Inactive)
REMARK    1  A    between atoms: O6_1  and  C6_2 
REMARK    2  A    between atoms: C6_2  and  C5_3 
REMARK    3  A    between atoms: C4_4  and  O4_5 
REMARK    4  A    between atoms: C3_6  and  O3_7 
REMARK    5  A    between atoms: C2_8  and  O2_9 
REMARK    6  A    between atoms: C7_12  and  C9_15 
REMARK    7  A    between atoms: C9_15  and  C10_16 
REMARK    8  A    between atoms: C10_16  and  C14_17 
ROOT
ATOM      1  C5  PGI d          -0.843   4.191  15.076  0.00  0.00     0.145 C 
ATOM      2  C4  PGI d          -1.812   3.882  16.231  0.00  0.00     0.175 C 
ATOM      3  C3  PGI d          -1.405   4.735  17.450  0.00  0.00     0.185 C 
ATOM      4  C2  PGI d          -1.615   6.220  17.192  0.00  0.00     0.219 C 
ATOM      5  N1  PGI d          -1.011   5.644  14.812  0.00  0.00    -0.332 N 
ATOM      6  C8  PGI d          -0.942   6.279  13.630  0.00  0.00     0.120 A 
ATOM      7  C7  PGI d          -1.229   7.611  13.887  0.00  0.00     0.052 A 
ATOM      8  N2  PGI d          -1.472   7.730  15.199  0.00  0.00    -0.235 NA
ATOM      9  C1  PGI d          -1.336   6.530  15.762  0.00  0.00     0.138 A 
ENDROOT
BRANCH   7  10
ATOM     10  C9  PGI d          -1.247   8.754  12.898  0.00  0.00     0.065 C 
BRANCH  10  11
ATOM     11  C10 PGI d          -2.165   8.410  11.723  0.00  0.00     0.044 C 
BRANCH  11  12
ATOM     12  C14 PGI d          -1.967   9.240  10.454  0.00  0.00    -0.058 A 
ATOM     13  C13 PGI d          -2.940   9.244   9.441  0.00  0.00     0.007 A 
ATOM     14  C12 PGI d          -2.781  10.018   8.276  0.00  0.00     0.001 A 
ATOM     15  C11 PGI d          -1.649  10.821   8.110  0.00  0.00     0.000 A 
ATOM     16  C16 PGI d          -0.679  10.817   9.122  0.00  0.00     0.001 A 
ATOM     17  C15 PGI d          -0.832  10.045  10.287  0.00  0.00     0.007 A 
ENDBRANCH  11  12
ENDBRANCH  10  11
ENDBRANCH   7  10
BRANCH   1  18
ATOM     18  C6  PGI d          -1.093   3.352  13.827  0.00  0.00     0.192 C 
BRANCH  18  19
ATOM     19  O6  PGI d          -2.472   3.007  13.635  0.00  0.00    -0.399 OA
ATOM     20  H1  PGI d          -3.007   3.787  13.723  0.00  0.00     0.209 HD
ENDBRANCH  18  19
ENDBRANCH   1  18
BRANCH   4  21
ATOM     21  O2  PGI d          -0.849   6.973  18.122  0.00  0.00    -0.385 OA
ATOM     22  H10 PGI d           0.049   7.031  17.818  0.00  0.00     0.210 HD
ENDBRANCH   4  21
BRANCH   2  23
ATOM     23  O4  PGI d          -1.802   2.488  16.561  0.00  0.00    -0.391 OA
ATOM     24  H6  PGI d          -1.971   2.382  17.490  0.00  0.00     0.210 HD
ENDBRANCH   2  23
BRANCH   3  25
ATOM     25  O3  PGI d          -2.124   4.448  18.649  0.00  0.00    -0.390 OA
ATOM     26  H8  PGI d          -1.681   3.755  19.124  0.00  0.00     0.210 HD
ENDBRANCH   3  25
TORSDOF 8
ENDMDL
MODEL 4
REMARK VINA RESULT:      -8.0      1.729      2.182
REMARK  8 active torsions:
REMARK  status: ('A' for Active; 'I' for Inactive)
REMARK    1  A    between atoms: O6_1  and  C6_2 
REMARK    2  A    between atoms: C6_2  and  C5_3 
REMARK    3  A    between atoms: C4_4  and  O4_5 
REMARK    4  A    between atoms: C3_6  and  O3_7 
REMARK    5  A    between atoms: C2_8  and  O2_9 
REMARK    6  A    between atoms: C7_12  and  C9_15 
REMARK    7  A    between atoms: C9_15  and  C10_16 
REMARK    8  A    between atoms: C10_16  and  C14_17 
ROOT
ATOM      1  C5  PGI d          -0.731   6.219  15.519  0.00  0.00     0.145 C 
ATOM      2  C4  PGI d          -2.214   6.535  15.778  0.00  0.00     0.175 C 
ATOM      3  C3  PGI d          -2.370   8.063  15.918  0.00  0.00     0.185 C 
ATOM      4  C2  PGI d          -2.071   8.782  14.610  0.00  0.00     0.219 C 
ATOM      5  N1  PGI d          -0.402   6.924  14.253  0.00  0.00    -0.332 N 
ATOM      6  C8  PGI d           0.442   6.530  13.286  0.00  0.00     0.120 A 
ATOM      7  C7  PGI d           0.362   7.486  12.285  0.00  0.00     0.052 A 
ATOM      8  N2  PGI d          -0.529   8.408  12.672  0.00  0.00    -0.235 NA
ATOM      9  C1  PGI d          -0.992   8.066  13.874  0.00  0.00     0.138 A 
ENDROOT
BRANCH   7  10
ATOM     10  C9  PGI d           1.142   7.529  10.991  0.00  0.00     0.065 C 
BRANCH  10  11
ATOM     11  C10 PGI d           0.196   7.320   9.806  0.00  0.00     0.044 C 
BRANCH  11  12
ATOM     12  C14 PGI d          -0.598   8.548   9.359  0.00  0.00    -0.058 A 
ATOM     13  C13 PGI d           0.064   9.707   8.919  0.00  0.00     0.007 A 
ATOM     14  C12 PGI d          -0.652  10.839   8.487  0.00  0.00     0.001 A 
ATOM     15  C11 PGI d          -2.051  10.826   8.468  0.00  0.00     0.000 A 
ATOM     16  C16 PGI d          -2.709   9.669   8.905  0.00  0.00     0.001 A 
ATOM     17  C15 PGI d          -1.999   8.536   9.340  0.00  0.00     0.007 A 
ENDBRANCH  11  12
ENDBRANCH  10  11
ENDBRANCH   7  10
BRANCH   1  18
ATOM     18  C6  PGI d          -0.429   4.727  15.435  0.00  0.00     0.192 C 
BRANCH  18  19
ATOM     19  O6  PGI d          -1.582   3.925  15.141  0.00  0.00    -0.399 OA
ATOM     20  H1  PGI d          -1.744   3.936  14.205  0.00  0.00     0.209 HD
ENDBRANCH  18  19
ENDBRANCH   1  18
BRANCH   4  21
ATOM     21  O2  PGI d          -1.801  10.151  14.875  0.00  0.00    -0.385 OA
ATOM     22  H10 PGI d          -0.875  10.259  15.061  0.00  0.00     0.210 HD
ENDBRANCH   4  21
BRANCH   2  23
ATOM     23  O4  PGI d          -2.694   5.866  16.950  0.00  0.00    -0.391 OA
ATOM     24  H6  PGI d          -2.564   6.425  17.708  0.00  0.00     0.210 HD
ENDBRANCH   2  23
BRANCH   3  25
ATOM     25  O3  PGI d          -3.671   8.500  16.307  0.00  0.00    -0.390 OA
ATOM     26  H8  PGI d          -4.082   7.831  16.842  0.00  0.00     0.210 HD
ENDBRANCH   3  25
TORSDOF 8
ENDMDL
MODEL 5
REMARK VINA RESULT:      -7.7      1.658      3.092
REMARK  8 active torsions:
REMARK  status: ('A' for Active; 'I' for Inactive)
REMARK    1  A    between atoms: O6_1  and  C6_2 
REMARK    2  A    between atoms: C6_2  and  C5_3 
REMARK    3  A    between atoms: C4_4  and  O4_5 
REMARK    4  A    between atoms: C3_6  and  O3_7 
REMARK    5  A    between atoms: C2_8  and  O2_9 
REMARK    6  A    between atoms: C7_12  and  C9_15 
REMARK    7  A    between atoms: C9_15  and  C10_16 
REMARK    8  A    between atoms: C10_16  and  C14_17 
ROOT
ATOM      1  C5  PGI d          -2.461   5.019  15.366  0.00  0.00     0.145 C 
ATOM      2  C4  PGI d          -2.607   5.621  16.774  0.00  0.00     0.175 C 
ATOM      3  C3  PGI d          -1.396   5.179  17.621  0.00  0.00     0.185 C 
ATOM      4  C2  PGI d          -0.098   5.783  17.104  0.00  0.00     0.219 C 
ATOM      5  N1  PGI d          -1.189   5.577  14.839  0.00  0.00    -0.332 N 
ATOM      6  C8  PGI d          -0.898   5.911  13.571  0.00  0.00     0.120 A 
ATOM      7  C7  PGI d           0.382   6.443  13.591  0.00  0.00     0.052 A 
ATOM      8  N2  PGI d           0.810   6.425  14.860  0.00  0.00    -0.235 NA
ATOM      9  C1  PGI d          -0.147   5.893  15.620  0.00  0.00     0.138 A 
ENDROOT
BRANCH   7  10
ATOM     10  C9  PGI d           1.189   6.938  12.414  0.00  0.00     0.065 C 
BRANCH  10  11
ATOM     11  C10 PGI d           0.371   6.802  11.128  0.00  0.00     0.044 C 
BRANCH  11  12
ATOM     12  C14 PGI d          -0.126   8.109  10.509  0.00  0.00    -0.058 A 
ATOM     13  C13 PGI d           0.066   8.373   9.142  0.00  0.00     0.007 A 
ATOM     14  C12 PGI d          -0.401   9.563   8.554  0.00  0.00     0.001 A 
ATOM     15  C11 PGI d          -1.090  10.508   9.321  0.00  0.00     0.000 A 
ATOM     16  C16 PGI d          -1.282  10.242  10.683  0.00  0.00     0.001 A 
ATOM     17  C15 PGI d          -0.816   9.056  11.277  0.00  0.00     0.007 A 
ENDBRANCH  11  12
ENDBRANCH  10  11
ENDBRANCH   7  10
BRANCH   1  18
ATOM     18  C6  PGI d          -3.640   5.321  14.447  0.00  0.00     0.192 C 
BRANCH  18  19
ATOM     19  O6  PGI d          -4.654   4.306  14.464  0.00  0.00    -0.399 OA
ATOM     20  H1  PGI d          -5.498   4.701  14.275  0.00  0.00     0.209 HD
ENDBRANCH  18  19
ENDBRANCH   1  18
BRANCH   4  21
ATOM     21  O2  PGI d           1.001   5.038  17.607  0.00  0.00    -0.385 OA
ATOM     22  H10 PGI d           0.923   4.133  17.330  0.00  0.00     0.210 HD
ENDBRANCH   4  21
BRANCH   2  23
ATOM     23  O4  PGI d          -3.834   5.213  17.392  0.00  0.00    -0.391 OA
ATOM     24  H6  PGI d          -3.969   5.715  18.188  0.00  0.00     0.210 HD
ENDBRANCH   2  23
BRANCH   3  25
ATOM     25  O3  PGI d          -1.465   5.540  19.000  0.00  0.00    -0.390 OA
ATOM     26  H8  PGI d          -0.993   4.899  19.518  0.00  0.00     0.210 HD
ENDBRANCH   3  25
TORSDOF 8
ENDMDL
MODEL 6
REMARK VINA RESULT:      -7.7      2.481      3.129
REMARK  8 active torsions:
REMARK  status: ('A' for Active; 'I' for Inactive)
REMARK    1  A    between atoms: O6_1  and  C6_2 
REMARK    2  A    between atoms: C6_2  and  C5_3 
REMARK    3  A    between atoms: C4_4  and  O4_5 
REMARK    4  A    between atoms: C3_6  and  O3_7 
REMARK    5  A    between atoms: C2_8  and  O2_9 
REMARK    6  A    between atoms: C7_12  and  C9_15 
REMARK    7  A    between atoms: C9_15  and  C10_16 
REMARK    8  A    between atoms: C10_16  and  C14_17 
ROOT
ATOM      1  C5  PGI d          -0.731   5.713  16.935  0.00  0.00     0.145 C 
ATOM      2  C4  PGI d          -2.072   4.981  17.113  0.00  0.00     0.175 C 
ATOM      3  C3  PGI d          -3.198   6.033  17.170  0.00  0.00     0.185 C 
ATOM      4  C2  PGI d          -3.358   6.759  15.842  0.00  0.00     0.219 C 
ATOM      5  N1  PGI d          -0.862   6.449  15.650  0.00  0.00    -0.332 N 
ATOM      6  C8  PGI d           0.095   6.698  14.741  0.00  0.00     0.120 A 
ATOM      7  C7  PGI d          -0.526   7.357  13.692  0.00  0.00     0.052 A 
ATOM      8  N2  PGI d          -1.825   7.471  13.994  0.00  0.00    -0.235 NA
ATOM      9  C1  PGI d          -2.029   6.920  15.190  0.00  0.00     0.138 A 
ENDROOT
BRANCH   7  10
ATOM     10  C9  PGI d           0.118   7.890  12.432  0.00  0.00     0.065 C 
BRANCH  10  11
ATOM     11  C10 PGI d           1.281   6.984  12.020  0.00  0.00     0.044 C 
BRANCH  11  12
ATOM     12  C14 PGI d           1.064   6.148  10.758  0.00  0.00    -0.058 A 
ATOM     13  C13 PGI d           0.789   6.768   9.528  0.00  0.00     0.007 A 
ATOM     14  C12 PGI d           0.605   6.014   8.353  0.00  0.00     0.001 A 
ATOM     15  C11 PGI d           0.712   4.620   8.384  0.00  0.00     0.000 A 
ATOM     16  C16 PGI d           0.987   4.004   9.612  0.00  0.00     0.001 A 
ATOM     17  C15 PGI d           1.170   4.752  10.789  0.00  0.00     0.007 A 
ENDBRANCH  11  12
ENDBRANCH  10  11
ENDBRANCH   7  10
BRANCH   1  18
ATOM     18  C6  PGI d           0.479   4.785  16.938  0.00  0.00     0.192 C 
BRANCH  18  19
ATOM     19  O6  PGI d           0.132   3.393  16.939  0.00  0.00    -0.399 OA
ATOM     20  H1  PGI d           0.640   2.941  17.603  0.00  0.00     0.209 HD
ENDBRANCH  18  19
ENDBRANCH   1  18
BRANCH   4  21
ATOM     21  O2  PGI d          -4.067   7.972  16.050  0.00  0.00    -0.385 OA
ATOM     22  H10 PGI d          -3.454   8.662  16.271  0.00  0.00     0.210 HD
ENDBRANCH   4  21
BRANCH   2  23
ATOM     23  O4  PGI d          -2.072   4.172  18.295  0.00  0.00    -0.391 OA
ATOM     24  H6  PGI d          -2.967   4.020  18.574  0.00  0.00     0.210 HD
ENDBRANCH   2  23
BRANCH   3  25
ATOM     25  O3  PGI d          -4.490   5.512  17.481  0.00  0.00    -0.390 OA
ATOM     26  H8  PGI d          -4.396   4.742  18.029  0.00  0.00     0.210 HD
ENDBRANCH   3  25
TORSDOF 8
ENDMDL
MODEL 7
REMARK VINA RESULT:      -7.6      6.222      7.277
REMARK  8 active torsions:
REMARK  status: ('A' for Active; 'I' for Inactive)
REMARK    1  A    between atoms: O6_1  and  C6_2 
REMARK    2  A    between atoms: C6_2  and  C5_3 
REMARK    3  A    between atoms: C4_4  and  O4_5 
REMARK    4  A    between atoms: C3_6  and  O3_7 
REMARK    5  A    between atoms: C2_8  and  O2_9 
REMARK    6  A    between atoms: C7_12  and  C9_15 
REMARK    7  A    between atoms: C9_15  and  C10_16 
REMARK    8  A    between atoms: C10_16  and  C14_17 
ROOT
ATOM      1  C5  PGI d          -0.931   2.860   9.044  0.00  0.00     0.145 C 
ATOM      2  C4  PGI d          -0.009   2.122   8.057  0.00  0.00     0.175 C 
ATOM      3  C3  PGI d           0.020   2.912   6.733  0.00  0.00     0.185 C 
ATOM      4  C2  PGI d           0.688   4.269   6.902  0.00  0.00     0.219 C 
ATOM      5  N1  PGI d          -0.313   4.201   9.216  0.00  0.00    -0.332 N 
ATOM      6  C8  PGI d          -0.285   4.959  10.325  0.00  0.00     0.120 A 
ATOM      7  C7  PGI d           0.457   6.086  10.008  0.00  0.00     0.052 A 
ATOM      8  N2  PGI d           0.858   5.966   8.736  0.00  0.00    -0.235 NA
ATOM      9  C1  PGI d           0.385   4.817   8.253  0.00  0.00     0.138 A 
ENDROOT
BRANCH   7  10
ATOM     10  C9  PGI d           0.756   7.270  10.900  0.00  0.00     0.065 C 
BRANCH  10  11
ATOM     11  C10 PGI d          -0.537   8.029  11.208  0.00  0.00     0.044 C 
BRANCH  11  12
ATOM     12  C14 PGI d          -1.123   8.846  10.055  0.00  0.00    -0.058 A 
ATOM     13  C13 PGI d          -2.513   8.925   9.867  0.00  0.00     0.007 A 
ATOM     14  C12 PGI d          -3.068   9.688   8.823  0.00  0.00     0.001 A 
ATOM     15  C11 PGI d          -2.240  10.406   7.954  0.00  0.00     0.000 A 
ATOM     16  C16 PGI d          -0.854  10.327   8.144  0.00  0.00     0.001 A 
ATOM     17  C15 PGI d          -0.294   9.565   9.185  0.00  0.00     0.007 A 
ENDBRANCH  11  12
ENDBRANCH  10  11
ENDBRANCH   7  10
BRANCH   1  18
ATOM     18  C6  PGI d          -1.105   2.138  10.375  0.00  0.00     0.192 C 
BRANCH  18  19
ATOM     19  O6  PGI d          -2.234   1.253  10.403  0.00  0.00    -0.399 OA
ATOM     20  H1  PGI d          -2.049   0.523  10.983  0.00  0.00     0.209 HD
ENDBRANCH  18  19
ENDBRANCH   1  18
BRANCH   4  21
ATOM     21  O2  PGI d           0.318   5.115   5.823  0.00  0.00    -0.385 OA
ATOM     22  H10 PGI d          -0.306   5.763   6.129  0.00  0.00     0.210 HD
ENDBRANCH   4  21
BRANCH   2  23
ATOM     23  O4  PGI d          -0.452   0.777   7.837  0.00  0.00    -0.391 OA
ATOM     24  H6  PGI d          -1.054   0.526   8.527  0.00  0.00     0.210 HD
ENDBRANCH   2  23
BRANCH   3  25
ATOM     25  O3  PGI d           0.719   2.270   5.667  0.00  0.00    -0.390 OA
ATOM     26  H8  PGI d           0.146   2.198   4.912  0.00  0.00     0.210 HD
ENDBRANCH   3  25
TORSDOF 8
ENDMDL
MODEL 8
REMARK VINA RESULT:      -7.6      3.927      8.026
REMARK  8 active torsions:
REMARK  status: ('A' for Active; 'I' for Inactive)
REMARK    1  A    between atoms: O6_1  and  C6_2 
REMARK    2  A    between atoms: C6_2  and  C5_3 
REMARK    3  A    between atoms: C4_4  and  O4_5 
REMARK    4  A    between atoms: C3_6  and  O3_7 
REMARK    5  A    between atoms: C2_8  and  O2_9 
REMARK    6  A    between atoms: C7_12  and  C9_15 
REMARK    7  A    between atoms: C9_15  and  C10_16 
REMARK    8  A    between atoms: C10_16  and  C14_17 
ROOT
ATOM      1  C5  PGI d          -0.264   9.300  10.538  0.00  0.00     0.145 C 
ATOM      2  C4  PGI d          -0.465   8.510   9.234  0.00  0.00     0.175 C 
ATOM      3  C3  PGI d           0.325   7.189   9.338  0.00  0.00     0.185 C 
ATOM      4  C2  PGI d          -0.251   6.272  10.408  0.00  0.00     0.219 C 
ATOM      5  N1  PGI d          -0.802   8.421  11.608  0.00  0.00    -0.332 N 
ATOM      6  C8  PGI d          -1.440   8.786  12.733  0.00  0.00     0.120 A 
ATOM      7  C7  PGI d          -1.801   7.612  13.375  0.00  0.00     0.052 A 
ATOM      8  N2  PGI d          -1.384   6.588  12.618  0.00  0.00    -0.235 NA
ATOM      9  C1  PGI d          -0.772   7.083  11.542  0.00  0.00     0.138 A 
ENDROOT
BRANCH   7  10
ATOM     10  C9  PGI d          -2.510   7.471  14.702  0.00  0.00     0.065 C 
BRANCH  10  11
ATOM     11  C10 PGI d          -1.489   7.483  15.842  0.00  0.00     0.044 C 
BRANCH  11  12
ATOM     12  C14 PGI d          -1.237   6.139  16.527  0.00  0.00    -0.058 A 
ATOM     13  C13 PGI d          -0.194   5.301  16.098  0.00  0.00     0.007 A 
ATOM     14  C12 PGI d           0.063   4.070  16.730  0.00  0.00     0.001 A 
ATOM     15  C11 PGI d          -0.711   3.660  17.822  0.00  0.00     0.000 A 
ATOM     16  C16 PGI d          -1.749   4.498  18.249  0.00  0.00     0.001 A 
ATOM     17  C15 PGI d          -2.011   5.729  17.620  0.00  0.00     0.007 A 
ENDBRANCH  11  12
ENDBRANCH  10  11
ENDBRANCH   7  10
BRANCH   1  18
ATOM     18  C6  PGI d          -0.938  10.669  10.534  0.00  0.00     0.192 C 
BRANCH  18  19
ATOM     19  O6  PGI d          -1.985  10.789   9.561  0.00  0.00    -0.399 OA
ATOM     20  H1  PGI d          -2.775  10.381   9.896  0.00  0.00     0.209 HD
ENDBRANCH  18  19
ENDBRANCH   1  18
BRANCH   4  21
ATOM     21  O2  PGI d           0.721   5.302  10.770  0.00  0.00    -0.385 OA
ATOM     22  H10 PGI d           1.336   5.685  11.384  0.00  0.00     0.210 HD
ENDBRANCH   4  21
BRANCH   2  23
ATOM     23  O4  PGI d          -0.041   9.267   8.094  0.00  0.00    -0.391 OA
ATOM     24  H6  PGI d          -0.680   9.945   7.910  0.00  0.00     0.210 HD
ENDBRANCH   2  23
BRANCH   3  25
ATOM     25  O3  PGI d           0.355   6.412   8.142  0.00  0.00    -0.390 OA
ATOM     26  H8  PGI d           0.719   6.934   7.435  0.00  0.00     0.210 HD
ENDBRANCH   3  25
TORSDOF 8
ENDMDL
MODEL 9
REMARK VINA RESULT:      -7.5      2.456      4.142
REMARK  8 active torsions:
REMARK  status: ('A' for Active; 'I' for Inactive)
REMARK    1  A    between atoms: O6_1  and  C6_2 
REMARK    2  A    between atoms: C6_2  and  C5_3 
REMARK    3  A    between atoms: C4_4  and  O4_5 
REMARK    4  A    between atoms: C3_6  and  O3_7 
REMARK    5  A    between atoms: C2_8  and  O2_9 
REMARK    6  A    between atoms: C7_12  and  C9_15 
REMARK    7  A    between atoms: C9_15  and  C10_16 
REMARK    8  A    between atoms: C10_16  and  C14_17 
ROOT
ATOM      1  C5  PGI d          -2.709   6.134  15.836  0.00  0.00     0.145 C 
ATOM      2  C4  PGI d          -1.800   6.002  17.070  0.00  0.00     0.175 C 
ATOM      3  C3  PGI d          -0.672   5.002  16.739  0.00  0.00     0.185 C 
ATOM      4  C2  PGI d           0.259   5.540  15.662  0.00  0.00     0.219 C 
ATOM      5  N1  PGI d          -1.822   6.642  14.757  0.00  0.00    -0.332 N 
ATOM      6  C8  PGI d          -2.137   7.486  13.760  0.00  0.00     0.120 A 
ATOM      7  C7  PGI d          -0.965   7.707  13.053  0.00  0.00     0.052 A 
ATOM      8  N2  PGI d           0.009   7.008  13.648  0.00  0.00    -0.235 NA
ATOM      9  C1  PGI d          -0.515   6.355  14.686  0.00  0.00     0.138 A 
ENDROOT
BRANCH   7  10
ATOM     10  C9  PGI d          -0.787   8.556  11.815  0.00  0.00     0.065 C 
BRANCH  10  11
ATOM     11  C10 PGI d           0.481   8.129  11.071  0.00  0.00     0.044 C 
BRANCH  11  12
ATOM     12  C14 PGI d           0.436   6.750  10.410  0.00  0.00    -0.058 A 
ATOM     13  C13 PGI d          -0.601   6.414   9.525  0.00  0.00     0.007 A 
ATOM     14  C12 PGI d          -0.646   5.156   8.894  0.00  0.00     0.001 A 
ATOM     15  C11 PGI d           0.361   4.213   9.124  0.00  0.00     0.000 A 
ATOM     16  C16 PGI d           1.396   4.551  10.007  0.00  0.00     0.001 A 
ATOM     17  C15 PGI d           1.445   5.805  10.641  0.00  0.00     0.007 A 
ENDBRANCH  11  12
ENDBRANCH  10  11
ENDBRANCH   7  10
BRANCH   1  18
ATOM     18  C6  PGI d          -3.914   7.042  16.058  0.00  0.00     0.192 C 
BRANCH  18  19
ATOM     19  O6  PGI d          -4.806   6.571  17.077  0.00  0.00    -0.399 OA
ATOM     20  H1  PGI d          -4.476   6.829  17.930  0.00  0.00     0.209 HD
ENDBRANCH  18  19
ENDBRANCH   1  18
BRANCH   4  21
ATOM     21  O2  PGI d           0.988   4.465  15.090  0.00  0.00    -0.385 OA
ATOM     22  H10 PGI d           0.452   3.681  15.096  0.00  0.00     0.210 HD
ENDBRANCH   4  21
BRANCH   2  23
ATOM     23  O4  PGI d          -2.539   5.572  18.219  0.00  0.00    -0.391 OA
ATOM     24  H6  PGI d          -3.187   4.928  17.955  0.00  0.00     0.210 HD
ENDBRANCH   2  23
BRANCH   3  25
ATOM     25  O3  PGI d           0.170   4.663  17.840  0.00  0.00    -0.390 OA
ATOM     26  H8  PGI d           0.917   5.251  17.859  0.00  0.00     0.210 HD
ENDBRANCH   3  25
TORSDOF 8
ENDMDL
MODEL 10
REMARK VINA RESULT:      -7.4      5.965      7.090
REMARK  8 active torsions:
REMARK  status: ('A' for Active; 'I' for Inactive)
REMARK    1  A    between atoms: O6_1  and  C6_2 
REMARK    2  A    between atoms: C6_2  and  C5_3 
REMARK    3  A    between atoms: C4_4  and  O4_5 
REMARK    4  A    between atoms: C3_6  and  O3_7 
REMARK    5  A    between atoms: C2_8  and  O2_9 
REMARK    6  A    between atoms: C7_12  and  C9_15 
REMARK    7  A    between atoms: C9_15  and  C10_16 
REMARK    8  A    between atoms: C10_16  and  C14_17 
ROOT
ATOM      1  C5  PGI d           0.829   3.587   7.860  0.00  0.00     0.145 C 
ATOM      2  C4  PGI d          -0.016   2.304   7.937  0.00  0.00     0.175 C 
ATOM      3  C3  PGI d           0.432   1.500   9.175  0.00  0.00     0.185 C 
ATOM      4  C2  PGI d           0.100   2.228  10.470  0.00  0.00     0.219 C 
ATOM      5  N1  PGI d           0.539   4.315   9.123  0.00  0.00    -0.332 N 
ATOM      6  C8  PGI d           0.465   5.643   9.311  0.00  0.00     0.120 A 
ATOM      7  C7  PGI d           0.110   5.830  10.637  0.00  0.00     0.052 A 
ATOM      8  N2  PGI d          -0.030   4.621  11.196  0.00  0.00    -0.235 NA
ATOM      9  C1  PGI d           0.236   3.697  10.273  0.00  0.00     0.138 A 
ENDROOT
BRANCH   7  10
ATOM     10  C9  PGI d          -0.070   7.143  11.364  0.00  0.00     0.065 C 
BRANCH  10  11
ATOM     11  C10 PGI d           0.350   8.301  10.455  0.00  0.00     0.044 C 
BRANCH  11  12
ATOM     12  C14 PGI d          -0.775   8.977   9.670  0.00  0.00    -0.058 A 
ATOM     13  C13 PGI d          -0.483   9.889   8.642  0.00  0.00     0.007 A 
ATOM     14  C12 PGI d          -1.506  10.505   7.898  0.00  0.00     0.001 A 
ATOM     15  C11 PGI d          -2.848  10.205   8.157  0.00  0.00     0.000 A 
ATOM     16  C16 PGI d          -3.137   9.294   9.181  0.00  0.00     0.001 A 
ATOM     17  C15 PGI d          -2.118   8.677   9.929  0.00  0.00     0.007 A 
ENDBRANCH  11  12
ENDBRANCH  10  11
ENDBRANCH   7  10
BRANCH   1  18
ATOM     18  C6  PGI d           0.534   4.440   6.631  0.00  0.00     0.192 C 
BRANCH  18  19
ATOM     19  O6  PGI d           0.940   3.829   5.398  0.00  0.00    -0.399 OA
ATOM     20  H1  PGI d           1.607   4.364   4.985  0.00  0.00     0.209 HD
ENDBRANCH  18  19
ENDBRANCH   1  18
BRANCH   4  21
ATOM     21  O2  PGI d           0.887   1.696  11.525  0.00  0.00    -0.385 OA
ATOM     22  H10 PGI d           0.555   0.839  11.767  0.00  0.00     0.210 HD
ENDBRANCH   4  21
BRANCH   2  23
ATOM     23  O4  PGI d           0.117   1.519   6.747  0.00  0.00    -0.391 OA
ATOM     24  H6  PGI d           0.287   0.614   6.982  0.00  0.00     0.210 HD
ENDBRANCH   2  23
BRANCH   3  25
ATOM     25  O3  PGI d          -0.162   0.208   9.298  0.00  0.00    -0.390 OA
ATOM     26  H8  PGI d          -1.099   0.302   9.428  0.00  0.00     0.210 HD
ENDBRANCH   3  25
TORSDOF 8
ENDMDL
