MODEL 1
REMARK VINA RESULT:      -8.5      0.000      0.000
REMARK  20 active torsions:
REMARK  status: ('A' for Active; 'I' for Inactive)
REMARK    1  A    between atoms: C3_3  and  C7_7 
REMARK    2  A    between atoms: C4_4  and  C27_27 
REMARK    3  A    between atoms: C7_7  and  C8_8 
REMARK    4  A    between atoms: C8_8  and  C9_9 
REMARK    5  A    between atoms: C9_9  and  C10_10 
REMARK    6  A    between atoms: C10_10  and  C11_11 
REMARK    7  A    between atoms: C11_11  and  C12_12 
REMARK    8  A    between atoms: C12_12  and  C13_13 
REMARK    9  A    between atoms: C13_13  and  C14_14 
REMARK   10  A    between atoms: C14_14  and  C15_15 
REMARK   11  A    between atoms: C15_15  and  C16_16 
REMARK       I    between atoms: C16_16  and  N17_17 
REMARK   12  A    between atoms: N17_17  and  C18_18 
REMARK   13  A    between atoms: C18_18  and  C20_20 
REMARK   14  A    between atoms: C18_18  and  C21_21 
REMARK   15  A    between atoms: C20_20  and  C23_23 
REMARK       I    between atoms: C21_21  and  N22_22 
REMARK   16  A    between atoms: N22_22  and  O32_32 
REMARK   17  A    between atoms: C23_23  and  C24_24 
REMARK   18  A    between atoms: C24_24  and  C25_25 
REMARK   19  A    between atoms: C25_25  and  N26_26 
REMARK   20  A    between atoms: C27_27  and  N28_28 
REMARK       I    between atoms: N28_28  and  C29_29 
REMARK       I    between atoms: C29_29  and  N30_30 
ROOT
ATOM      1  C12 FA4 d          27.284   4.021  14.100  0.00  0.00     0.000 C 
ENDROOT
BRANCH   1   2
ATOM      2  C11 FA4 d          27.068   2.573  14.549  0.00  0.00     0.000 C 
BRANCH   2   3
ATOM      3  C10 FA4 d          25.706   2.028  14.113  0.00  0.00     0.000 C 
BRANCH   3   4
ATOM      4  C9  FA4 d          24.550   2.513  14.993  0.00  0.00     0.000 C 
BRANCH   4   5
ATOM      5  C8  FA4 d          23.244   1.767  14.719  0.00  0.00     0.005 C 
BRANCH   5   6
ATOM      6  C7  FA4 d          23.088   1.379  13.238  0.00  0.00     0.039 C 
BRANCH   6   7
ATOM      7  C3  FA4 d          21.654   1.453  12.776  0.00  0.00    -0.050 A 
ATOM      8  C2  FA4 d          20.775   0.350  13.033  0.00  0.00     0.007 A 
ATOM      9  C1  FA4 d          19.412   0.390  12.607  0.00  0.00     0.001 A 
ATOM     10  C6  FA4 d          18.899   1.530  11.909  0.00  0.00     0.001 A 
ATOM     11  C5  FA4 d          19.760   2.649  11.639  0.00  0.00     0.009 A 
ATOM     12  C4  FA4 d          21.136   2.626  12.063  0.00  0.00    -0.034 A 
BRANCH  12  13
ATOM     13  C27 FA4 d          21.968   3.855  11.740  0.00  0.00     0.177 C 
BRANCH  13  14
ATOM     14  N28 FA4 d          22.069   4.747  12.902  0.00  0.00    -0.223 N 
ATOM     15  C29 FA4 d          23.164   5.571  13.062  0.00  0.00     0.665 C 
ATOM     16  N30 FA4 d          23.029   6.717  13.720  0.00  0.00    -0.235 N 
ATOM     17  N31 FA4 d          24.363   5.239  12.562  0.00  0.00    -0.235 N 
ATOM     18  H40 FA4 d          23.842   7.338  13.844  0.00  0.00     0.174 HD
ATOM     19  H41 FA4 d          22.112   6.984  14.106  0.00  0.00     0.174 HD
ATOM     20  H42 FA4 d          24.479   4.353  12.049  0.00  0.00     0.174 HD
ATOM     21  H43 FA4 d          25.167   5.870  12.689  0.00  0.00     0.174 HD
ATOM     22  H39 FA4 d          21.315   4.759  13.603  0.00  0.00     0.178 HD
ENDBRANCH  13  14
ENDBRANCH  12  13
ENDBRANCH   6   7
ENDBRANCH   5   6
ENDBRANCH   4   5
ENDBRANCH   3   4
ENDBRANCH   2   3
ENDBRANCH   1   2
BRANCH   1  23
ATOM     23  C13 FA4 d          28.070   4.851  15.108  0.00  0.00     0.000 C 
BRANCH  23  24
ATOM     24  C14 FA4 d          29.292   4.109  15.662  0.00  0.00     0.009 C 
BRANCH  24  25
ATOM     25  C15 FA4 d          30.456   4.017  14.675  0.00  0.00     0.103 C 
BRANCH  25  26
ATOM     26  C16 FA4 d          31.586   4.978  15.071  0.00  0.00     0.218 C 
ATOM     27  N17 FA4 d          31.205   6.266  14.926  0.00  0.00    -0.348 N 
ATOM     28  H23 FA4 d          30.286   6.467  14.587  0.00  0.00     0.163 HD
ATOM     29  O19 FA4 d          32.680   4.567  15.468  0.00  0.00    -0.274 OA
BRANCH  27  30
ATOM     30  C18 FA4 d          32.094   7.366  15.249  0.00  0.00     0.178 C 
BRANCH  30  31
ATOM     31  C20 FA4 d          31.236   8.510  15.793  0.00  0.00     0.035 C 
BRANCH  31  32
ATOM     32  C23 FA4 d          29.931   8.049  16.431  0.00  0.00     0.004 C 
BRANCH  32  33
ATOM     33  C24 FA4 d          30.060   7.902  17.947  0.00  0.00     0.027 C 
BRANCH  33  34
ATOM     34  C25 FA4 d          29.966   9.244  18.675  0.00  0.00     0.229 C 
BRANCH  34  35
ATOM     35  N26 FA4 d          28.738   9.965  18.361  0.00  0.00    -0.079 N 
ATOM     36  H34 FA4 d          28.732  10.210  17.384  0.00  0.00     0.274 HD
ATOM     37  H35 FA4 d          28.690  10.804  18.918  0.00  0.00     0.274 HD
ATOM     38  H36 FA4 d          27.943   9.380  18.565  0.00  0.00     0.274 HD
ENDBRANCH  34  35
ENDBRANCH  33  34
ENDBRANCH  32  33
ENDBRANCH  31  32
ENDBRANCH  30  31
BRANCH  30  39
ATOM     39  C21 FA4 d          32.875   7.799  13.994  0.00  0.00     0.263 C 
ATOM     40  N22 FA4 d          33.466   6.785  13.347  0.00  0.00    -0.236 N 
ATOM     41  H27 FA4 d          33.380   5.849  13.688  0.00  0.00     0.197 HD
ATOM     42  O33 FA4 d          32.922   8.973  13.645  0.00  0.00    -0.269 OA
BRANCH  40  43
ATOM     43  O32 FA4 d          34.204   7.046  12.189  0.00  0.00    -0.287 OA
ATOM     44  H44 FA4 d          34.888   7.675  12.386  0.00  0.00     0.244 HD
ENDBRANCH  40  43
ENDBRANCH  30  39
ENDBRANCH  27  30
ENDBRANCH  25  26
ENDBRANCH  24  25
ENDBRANCH  23  24
ENDBRANCH   1  23
TORSDOF 20
ENDMDL
MODEL 2
REMARK VINA RESULT:      -8.3      6.357     11.182
REMARK  20 active torsions:
REMARK  status: ('A' for Active; 'I' for Inactive)
REMARK    1  A    between atoms: C3_3  and  C7_7 
REMARK    2  A    between atoms: C4_4  and  C27_27 
REMARK    3  A    between atoms: C7_7  and  C8_8 
REMARK    4  A    between atoms: C8_8  and  C9_9 
REMARK    5  A    between atoms: C9_9  and  C10_10 
REMARK    6  A    between atoms: C10_10  and  C11_11 
REMARK    7  A    between atoms: C11_11  and  C12_12 
REMARK    8  A    between atoms: C12_12  and  C13_13 
REMARK    9  A    between atoms: C13_13  and  C14_14 
REMARK   10  A    between atoms: C14_14  and  C15_15 
REMARK   11  A    between atoms: C15_15  and  C16_16 
REMARK       I    between atoms: C16_16  and  N17_17 
REMARK   12  A    between atoms: N17_17  and  C18_18 
REMARK   13  A    between atoms: C18_18  and  C20_20 
REMARK   14  A    between atoms: C18_18  and  C21_21 
REMARK   15  A    between atoms: C20_20  and  C23_23 
REMARK       I    between atoms: C21_21  and  N22_22 
REMARK   16  A    between atoms: N22_22  and  O32_32 
REMARK   17  A    between atoms: C23_23  and  C24_24 
REMARK   18  A    between atoms: C24_24  and  C25_25 
REMARK   19  A    between atoms: C25_25  and  N26_26 
REMARK   20  A    between atoms: C27_27  and  N28_28 
REMARK       I    between atoms: N28_28  and  C29_29 
REMARK       I    between atoms: C29_29  and  N30_30 
ROOT
ATOM      1  C12 FA4 d          20.121   4.171  15.459  0.00  0.00     0.000 C 
ENDROOT
BRANCH   1   2
ATOM      2  C11 FA4 d          21.216   4.639  16.421  0.00  0.00     0.000 C 
BRANCH   2   3
ATOM      3  C10 FA4 d          22.536   3.895  16.205  0.00  0.00     0.000 C 
BRANCH   3   4
ATOM      4  C9  FA4 d          22.454   2.822  15.115  0.00  0.00     0.000 C 
BRANCH   4   5
ATOM      5  C8  FA4 d          23.563   1.776  15.231  0.00  0.00     0.005 C 
BRANCH   5   6
ATOM      6  C7  FA4 d          24.468   1.738  13.987  0.00  0.00     0.039 C 
BRANCH   6   7
ATOM      7  C3  FA4 d          25.616   2.710  14.085  0.00  0.00    -0.050 A 
ATOM      8  C2  FA4 d          26.835   2.298  14.719  0.00  0.00     0.007 A 
ATOM      9  C1  FA4 d          27.940   3.196  14.828  0.00  0.00     0.001 A 
ATOM     10  C6  FA4 d          27.850   4.528  14.311  0.00  0.00     0.001 A 
ATOM     11  C5  FA4 d          26.640   4.967  13.670  0.00  0.00     0.009 A 
ATOM     12  C4  FA4 d          25.517   4.074  13.551  0.00  0.00    -0.034 A 
BRANCH  12  13
ATOM     13  C27 FA4 d          24.283   4.621  12.855  0.00  0.00     0.177 C 
BRANCH  13  14
ATOM     14  N28 FA4 d          23.912   5.937  13.389  0.00  0.00    -0.223 N 
ATOM     15  C29 FA4 d          22.602   6.366  13.354  0.00  0.00     0.665 C 
ATOM     16  N30 FA4 d          22.168   7.216  14.277  0.00  0.00    -0.235 N 
ATOM     17  N31 FA4 d          21.755   5.937  12.407  0.00  0.00    -0.235 N 
ATOM     18  H40 FA4 d          21.190   7.542  14.258  0.00  0.00     0.174 HD
ATOM     19  H41 FA4 d          22.808   7.550  15.012  0.00  0.00     0.174 HD
ATOM     20  H42 FA4 d          22.081   5.278  11.685  0.00  0.00     0.174 HD
ATOM     21  H43 FA4 d          20.780   6.267  12.400  0.00  0.00     0.174 HD
ATOM     22  H39 FA4 d          24.638   6.546  13.794  0.00  0.00     0.178 HD
ENDBRANCH  13  14
ENDBRANCH  12  13
ENDBRANCH   6   7
ENDBRANCH   5   6
ENDBRANCH   4   5
ENDBRANCH   3   4
ENDBRANCH   2   3
ENDBRANCH   1   2
BRANCH   1  23
ATOM     23  C13 FA4 d          18.793   3.888  16.153  0.00  0.00     0.000 C 
BRANCH  23  24
ATOM     24  C14 FA4 d          17.648   3.649  15.163  0.00  0.00     0.009 C 
BRANCH  24  25
ATOM     25  C15 FA4 d          16.711   2.510  15.570  0.00  0.00     0.103 C 
BRANCH  25  26
ATOM     26  C16 FA4 d          17.082   1.210  14.844  0.00  0.00     0.218 C 
ATOM     27  N17 FA4 d          17.687   1.465  13.663  0.00  0.00    -0.348 N 
ATOM     28  H23 FA4 d          17.822   2.415  13.380  0.00  0.00     0.163 HD
ATOM     29  O19 FA4 d          16.838   0.102  15.328  0.00  0.00    -0.274 OA
BRANCH  27  30
ATOM     30  C18 FA4 d          18.147   0.398  12.794  0.00  0.00     0.178 C 
BRANCH  30  31
ATOM     31  C20 FA4 d          19.629   0.644  12.503  0.00  0.00     0.035 C 
BRANCH  31  32
ATOM     32  C23 FA4 d          20.051   2.101  12.654  0.00  0.00     0.004 C 
BRANCH  32  33
ATOM     33  C24 FA4 d          21.163   2.475  11.674  0.00  0.00     0.027 C 
BRANCH  33  34
ATOM     34  C25 FA4 d          20.875   1.993  10.251  0.00  0.00     0.229 C 
BRANCH  34  35
ATOM     35  N26 FA4 d          19.856   2.795   9.585  0.00  0.00    -0.079 N 
ATOM     36  H34 FA4 d          19.060   2.216   9.369  0.00  0.00     0.274 HD
ATOM     37  H35 FA4 d          20.234   3.178   8.732  0.00  0.00     0.274 HD
ATOM     38  H36 FA4 d          19.569   3.546  10.193  0.00  0.00     0.274 HD
ENDBRANCH  34  35
ENDBRANCH  33  34
ENDBRANCH  32  33
ENDBRANCH  31  32
ENDBRANCH  30  31
BRANCH  30  39
ATOM     39  C21 FA4 d          17.317   0.380  11.497  0.00  0.00     0.263 C 
ATOM     40  N22 FA4 d          16.000   0.231  11.698  0.00  0.00    -0.236 N 
ATOM     41  H27 FA4 d          15.638   0.142  12.625  0.00  0.00     0.197 HD
ATOM     42  O33 FA4 d          17.847   0.502  10.398  0.00  0.00    -0.269 OA
BRANCH  40  43
ATOM     43  O32 FA4 d          15.137   0.202  10.599  0.00  0.00    -0.287 OA
ATOM     44  H44 FA4 d          15.311  -0.575  10.081  0.00  0.00     0.244 HD
ENDBRANCH  40  43
ENDBRANCH  30  39
ENDBRANCH  27  30
ENDBRANCH  25  26
ENDBRANCH  24  25
ENDBRANCH  23  24
ENDBRANCH   1  23
TORSDOF 20
ENDMDL
MODEL 3
REMARK VINA RESULT:      -8.3      1.596      2.147
REMARK  20 active torsions:
REMARK  status: ('A' for Active; 'I' for Inactive)
REMARK    1  A    between atoms: C3_3  and  C7_7 
REMARK    2  A    between atoms: C4_4  and  C27_27 
REMARK    3  A    between atoms: C7_7  and  C8_8 
REMARK    4  A    between atoms: C8_8  and  C9_9 
REMARK    5  A    between atoms: C9_9  and  C10_10 
REMARK    6  A    between atoms: C10_10  and  C11_11 
REMARK    7  A    between atoms: C11_11  and  C12_12 
REMARK    8  A    between atoms: C12_12  and  C13_13 
REMARK    9  A    between atoms: C13_13  and  C14_14 
REMARK   10  A    between atoms: C14_14  and  C15_15 
REMARK   11  A    between atoms: C15_15  and  C16_16 
REMARK       I    between atoms: C16_16  and  N17_17 
REMARK   12  A    between atoms: N17_17  and  C18_18 
REMARK   13  A    between atoms: C18_18  and  C20_20 
REMARK   14  A    between atoms: C18_18  and  C21_21 
REMARK   15  A    between atoms: C20_20  and  C23_23 
REMARK       I    between atoms: C21_21  and  N22_22 
REMARK   16  A    between atoms: N22_22  and  O32_32 
REMARK   17  A    between atoms: C23_23  and  C24_24 
REMARK   18  A    between atoms: C24_24  and  C25_25 
REMARK   19  A    between atoms: C25_25  and  N26_26 
REMARK   20  A    between atoms: C27_27  and  N28_28 
REMARK       I    between atoms: N28_28  and  C29_29 
REMARK       I    between atoms: C29_29  and  N30_30 
ROOT
ATOM      1  C12 FA4 d          28.673   4.912  14.606  0.00  0.00     0.000 C 
ENDROOT
BRANCH   1   2
ATOM      2  C11 FA4 d          27.485   4.230  15.290  0.00  0.00     0.000 C 
BRANCH   2   3
ATOM      3  C10 FA4 d          27.288   2.790  14.811  0.00  0.00     0.000 C 
BRANCH   3   4
ATOM      4  C9  FA4 d          26.397   2.681  13.570  0.00  0.00     0.000 C 
BRANCH   4   5
ATOM      5  C8  FA4 d          25.060   3.405  13.737  0.00  0.00     0.005 C 
BRANCH   5   6
ATOM      6  C7  FA4 d          24.118   2.681  14.713  0.00  0.00     0.039 C 
BRANCH   6   7
ATOM      7  C3  FA4 d          22.756   2.431  14.115  0.00  0.00    -0.050 A 
ATOM      8  C2  FA4 d          22.536   1.247  13.337  0.00  0.00     0.007 A 
ATOM      9  C1  FA4 d          21.258   0.984  12.757  0.00  0.00     0.001 A 
ATOM     10  C6  FA4 d          20.173   1.900  12.937  0.00  0.00     0.001 A 
ATOM     11  C5  FA4 d          20.366   3.094  13.714  0.00  0.00     0.009 A 
ATOM     12  C4  FA4 d          21.648   3.374  14.306  0.00  0.00    -0.034 A 
BRANCH  12  13
ATOM     13  C27 FA4 d          21.759   4.656  15.115  0.00  0.00     0.177 C 
BRANCH  13  14
ATOM     14  N28 FA4 d          21.182   5.794  14.387  0.00  0.00    -0.223 N 
ATOM     15  C29 FA4 d          21.949   6.523  13.502  0.00  0.00     0.665 C 
ATOM     16  N30 FA4 d          21.363   7.128  12.475  0.00  0.00    -0.235 N 
ATOM     17  N31 FA4 d          23.276   6.629  13.656  0.00  0.00    -0.235 N 
ATOM     18  H40 FA4 d          21.929   7.675  11.809  0.00  0.00     0.174 HD
ATOM     19  H41 FA4 d          20.345   7.051  12.344  0.00  0.00     0.174 HD
ATOM     20  H42 FA4 d          23.741   6.164  14.449  0.00  0.00     0.174 HD
ATOM     21  H43 FA4 d          23.831   7.176  12.983  0.00  0.00     0.174 HD
ATOM     22  H39 FA4 d          20.196   6.049  14.539  0.00  0.00     0.178 HD
ENDBRANCH  13  14
ENDBRANCH  12  13
ENDBRANCH   6   7
ENDBRANCH   5   6
ENDBRANCH   4   5
ENDBRANCH   3   4
ENDBRANCH   2   3
ENDBRANCH   1   2
BRANCH   1  23
ATOM     23  C13 FA4 d          29.925   4.043  14.569  0.00  0.00     0.000 C 
BRANCH  23  24
ATOM     24  C14 FA4 d          31.098   4.661  15.337  0.00  0.00     0.009 C 
BRANCH  24  25
ATOM     25  C15 FA4 d          30.694   5.819  16.250  0.00  0.00     0.103 C 
BRANCH  25  26
ATOM     26  C16 FA4 d          31.797   6.886  16.301  0.00  0.00     0.218 C 
ATOM     27  N17 FA4 d          31.904   7.535  15.120  0.00  0.00    -0.348 N 
ATOM     28  H23 FA4 d          31.302   7.274  14.365  0.00  0.00     0.163 HD
ATOM     29  O19 FA4 d          32.465   7.084  17.320  0.00  0.00    -0.274 OA
BRANCH  27  30
ATOM     30  C18 FA4 d          32.868   8.600  14.919  0.00  0.00     0.178 C 
BRANCH  30  31
ATOM     31  C20 FA4 d          32.101   9.924  14.914  0.00  0.00     0.035 C 
BRANCH  31  32
ATOM     32  C23 FA4 d          32.102  10.640  16.260  0.00  0.00     0.004 C 
BRANCH  32  33
ATOM     33  C24 FA4 d          30.688  10.806  16.817  0.00  0.00     0.027 C 
BRANCH  33  34
ATOM     34  C25 FA4 d          30.467  10.001  18.098  0.00  0.00     0.229 C 
BRANCH  34  35
ATOM     35  N26 FA4 d          31.718   9.609  18.735  0.00  0.00    -0.079 N 
ATOM     36  H34 FA4 d          31.978  10.301  19.420  0.00  0.00     0.274 HD
ATOM     37  H35 FA4 d          32.443   9.538  18.037  0.00  0.00     0.274 HD
ATOM     38  H36 FA4 d          31.600   8.717  19.188  0.00  0.00     0.274 HD
ENDBRANCH  34  35
ENDBRANCH  33  34
ENDBRANCH  32  33
ENDBRANCH  31  32
ENDBRANCH  30  31
BRANCH  30  39
ATOM     39  C21 FA4 d          33.623   8.384  13.595  0.00  0.00     0.263 C 
ATOM     40  N22 FA4 d          33.691   7.102  13.212  0.00  0.00    -0.236 N 
ATOM     41  H27 FA4 d          33.274   6.385  13.771  0.00  0.00     0.197 HD
ATOM     42  O33 FA4 d          34.100   9.326  12.970  0.00  0.00    -0.269 OA
BRANCH  40  43
ATOM     43  O32 FA4 d          34.348   6.774  12.023  0.00  0.00    -0.287 OA
ATOM     44  H44 FA4 d          35.055   7.391  11.873  0.00  0.00     0.244 HD
ENDBRANCH  40  43
ENDBRANCH  30  39
ENDBRANCH  27  30
ENDBRANCH  25  26
ENDBRANCH  24  25
ENDBRANCH  23  24
ENDBRANCH   1  23
TORSDOF 20
ENDMDL
MODEL 4
REMARK VINA RESULT:      -8.3      2.155      3.465
REMARK  20 active torsions:
REMARK  status: ('A' for Active; 'I' for Inactive)
REMARK    1  A    between atoms: C3_3  and  C7_7 
REMARK    2  A    between atoms: C4_4  and  C27_27 
REMARK    3  A    between atoms: C7_7  and  C8_8 
REMARK    4  A    between atoms: C8_8  and  C9_9 
REMARK    5  A    between atoms: C9_9  and  C10_10 
REMARK    6  A    between atoms: C10_10  and  C11_11 
REMARK    7  A    between atoms: C11_11  and  C12_12 
REMARK    8  A    between atoms: C12_12  and  C13_13 
REMARK    9  A    between atoms: C13_13  and  C14_14 
REMARK   10  A    between atoms: C14_14  and  C15_15 
REMARK   11  A    between atoms: C15_15  and  C16_16 
REMARK       I    between atoms: C16_16  and  N17_17 
REMARK   12  A    between atoms: N17_17  and  C18_18 
REMARK   13  A    between atoms: C18_18  and  C20_20 
REMARK   14  A    between atoms: C18_18  and  C21_21 
REMARK   15  A    between atoms: C20_20  and  C23_23 
REMARK       I    between atoms: C21_21  and  N22_22 
REMARK   16  A    between atoms: N22_22  and  O32_32 
REMARK   17  A    between atoms: C23_23  and  C24_24 
REMARK   18  A    between atoms: C24_24  and  C25_25 
REMARK   19  A    between atoms: C25_25  and  N26_26 
REMARK   20  A    between atoms: C27_27  and  N28_28 
REMARK       I    between atoms: N28_28  and  C29_29 
REMARK       I    between atoms: C29_29  and  N30_30 
ROOT
ATOM      1  C12 FA4 d          25.612   3.190  14.438  0.00  0.00     0.000 C 
ENDROOT
BRANCH   1   2
ATOM      2  C11 FA4 d          24.425   2.943  15.374  0.00  0.00     0.000 C 
BRANCH   2   3
ATOM      3  C10 FA4 d          23.641   1.684  14.998  0.00  0.00     0.000 C 
BRANCH   3   4
ATOM      4  C9  FA4 d          23.610   1.419  13.490  0.00  0.00     0.000 C 
BRANCH   4   5
ATOM      5  C8  FA4 d          22.207   1.546  12.895  0.00  0.00     0.005 C 
BRANCH   5   6
ATOM      6  C7  FA4 d          22.124   2.632  11.809  0.00  0.00     0.039 C 
BRANCH   6   7
ATOM      7  C3  FA4 d          21.817   3.992  12.382  0.00  0.00    -0.050 A 
ATOM      8  C2  FA4 d          22.894   4.898  12.658  0.00  0.00     0.007 A 
ATOM      9  C1  FA4 d          22.635   6.193  13.202  0.00  0.00     0.001 A 
ATOM     10  C6  FA4 d          21.296   6.610  13.487  0.00  0.00     0.001 A 
ATOM     11  C5  FA4 d          20.198   5.721  13.219  0.00  0.00     0.009 A 
ATOM     12  C4  FA4 d          20.440   4.413  12.670  0.00  0.00    -0.034 A 
BRANCH  12  13
ATOM     13  C27 FA4 d          19.221   3.545  12.413  0.00  0.00     0.177 C 
BRANCH  13  14
ATOM     14  N28 FA4 d          18.820   3.597  11.001  0.00  0.00    -0.223 N 
ATOM     15  C29 FA4 d          18.488   2.444  10.322  0.00  0.00     0.665 C 
ATOM     16  N30 FA4 d          17.627   2.504   9.312  0.00  0.00    -0.235 N 
ATOM     17  N31 FA4 d          19.015   1.259  10.664  0.00  0.00    -0.235 N 
ATOM     18  H40 FA4 d          17.374   1.648   8.799  0.00  0.00     0.174 HD
ATOM     19  H41 FA4 d          17.213   3.408   9.043  0.00  0.00     0.174 HD
ATOM     20  H42 FA4 d          19.683   1.200  11.445  0.00  0.00     0.174 HD
ATOM     21  H43 FA4 d          18.751   0.409  10.146  0.00  0.00     0.174 HD
ATOM     22  H39 FA4 d          18.786   4.504  10.514  0.00  0.00     0.178 HD
ENDBRANCH  13  14
ENDBRANCH  12  13
ENDBRANCH   6   7
ENDBRANCH   5   6
ENDBRANCH   4   5
ENDBRANCH   3   4
ENDBRANCH   2   3
ENDBRANCH   1   2
BRANCH   1  23
ATOM     23  C13 FA4 d          26.840   2.361  14.796  0.00  0.00     0.000 C 
BRANCH  23  24
ATOM     24  C14 FA4 d          28.152   3.044  14.395  0.00  0.00     0.009 C 
BRANCH  24  25
ATOM     25  C15 FA4 d          28.168   4.551  14.658  0.00  0.00     0.103 C 
BRANCH  25  26
ATOM     26  C16 FA4 d          29.565   5.016  15.091  0.00  0.00     0.218 C 
ATOM     27  N17 FA4 d          29.648   6.365  15.106  0.00  0.00    -0.348 N 
ATOM     28  H23 FA4 d          28.849   6.905  14.842  0.00  0.00     0.163 HD
ATOM     29  O19 FA4 d          30.457   4.214  15.381  0.00  0.00    -0.274 OA
BRANCH  27  30
ATOM     30  C18 FA4 d          30.866   7.050  15.494  0.00  0.00     0.178 C 
BRANCH  30  31
ATOM     31  C20 FA4 d          30.463   8.305  16.272  0.00  0.00     0.035 C 
BRANCH  31  32
ATOM     32  C23 FA4 d          29.403   8.052  17.339  0.00  0.00     0.004 C 
BRANCH  32  33
ATOM     33  C24 FA4 d          30.001   8.056  18.746  0.00  0.00     0.027 C 
BRANCH  33  34
ATOM     34  C25 FA4 d          29.207   7.184  19.720  0.00  0.00     0.229 C 
BRANCH  34  35
ATOM     35  N26 FA4 d          29.890   7.007  20.996  0.00  0.00    -0.079 N 
ATOM     36  H34 FA4 d          30.680   6.393  20.873  0.00  0.00     0.274 HD
ATOM     37  H35 FA4 d          29.253   6.604  21.665  0.00  0.00     0.274 HD
ATOM     38  H36 FA4 d          30.210   7.901  21.333  0.00  0.00     0.274 HD
ENDBRANCH  34  35
ENDBRANCH  33  34
ENDBRANCH  32  33
ENDBRANCH  31  32
ENDBRANCH  30  31
BRANCH  30  39
ATOM     39  C21 FA4 d          31.692   7.407  14.246  0.00  0.00     0.263 C 
ATOM     40  N22 FA4 d          32.653   6.518  13.958  0.00  0.00    -0.236 N 
ATOM     41  H27 FA4 d          32.783   5.711  14.535  0.00  0.00     0.197 HD
ATOM     42  O33 FA4 d          31.458   8.418  13.592  0.00  0.00    -0.269 OA
BRANCH  40  43
ATOM     43  O32 FA4 d          33.472   6.726  12.844  0.00  0.00    -0.287 OA
ATOM     44  H44 FA4 d          33.146   7.469  12.349  0.00  0.00     0.244 HD
ENDBRANCH  40  43
ENDBRANCH  30  39
ENDBRANCH  27  30
ENDBRANCH  25  26
ENDBRANCH  24  25
ENDBRANCH  23  24
ENDBRANCH   1  23
TORSDOF 20
ENDMDL
MODEL 5
REMARK VINA RESULT:      -8.2      5.777     10.598
REMARK  20 active torsions:
REMARK  status: ('A' for Active; 'I' for Inactive)
REMARK    1  A    between atoms: C3_3  and  C7_7 
REMARK    2  A    between atoms: C4_4  and  C27_27 
REMARK    3  A    between atoms: C7_7  and  C8_8 
REMARK    4  A    between atoms: C8_8  and  C9_9 
REMARK    5  A    between atoms: C9_9  and  C10_10 
REMARK    6  A    between atoms: C10_10  and  C11_11 
REMARK    7  A    between atoms: C11_11  and  C12_12 
REMARK    8  A    between atoms: C12_12  and  C13_13 
REMARK    9  A    between atoms: C13_13  and  C14_14 
REMARK   10  A    between atoms: C14_14  and  C15_15 
REMARK   11  A    between atoms: C15_15  and  C16_16 
REMARK       I    between atoms: C16_16  and  N17_17 
REMARK   12  A    between atoms: N17_17  and  C18_18 
REMARK   13  A    between atoms: C18_18  and  C20_20 
REMARK   14  A    between atoms: C18_18  and  C21_21 
REMARK   15  A    between atoms: C20_20  and  C23_23 
REMARK       I    between atoms: C21_21  and  N22_22 
REMARK   16  A    between atoms: N22_22  and  O32_32 
REMARK   17  A    between atoms: C23_23  and  C24_24 
REMARK   18  A    between atoms: C24_24  and  C25_25 
REMARK   19  A    between atoms: C25_25  and  N26_26 
REMARK   20  A    between atoms: C27_27  and  N28_28 
REMARK       I    between atoms: N28_28  and  C29_29 
REMARK       I    between atoms: C29_29  and  N30_30 
ROOT
ATOM      1  C12 FA4 d          20.254   4.024  15.295  0.00  0.00     0.000 C 
ENDROOT
BRANCH   1   2
ATOM      2  C11 FA4 d          21.382   4.475  16.228  0.00  0.00     0.000 C 
BRANCH   2   3
ATOM      3  C10 FA4 d          22.701   3.758  15.933  0.00  0.00     0.000 C 
BRANCH   3   4
ATOM      4  C9  FA4 d          22.555   2.610  14.929  0.00  0.00     0.000 C 
BRANCH   4   5
ATOM      5  C8  FA4 d          23.680   1.581  15.038  0.00  0.00     0.005 C 
BRANCH   5   6
ATOM      6  C7  FA4 d          24.659   1.651  13.854  0.00  0.00     0.039 C 
BRANCH   6   7
ATOM      7  C3  FA4 d          25.753   2.664  14.074  0.00  0.00    -0.050 A 
ATOM      8  C2  FA4 d          26.924   2.286  14.812  0.00  0.00     0.007 A 
ATOM      9  C1  FA4 d          27.977   3.224  15.038  0.00  0.00     0.001 A 
ATOM     10  C6  FA4 d          27.882   4.561  14.537  0.00  0.00     0.001 A 
ATOM     11  C5  FA4 d          26.720   4.966  13.793  0.00  0.00     0.009 A 
ATOM     12  C4  FA4 d          25.650   4.033  13.555  0.00  0.00    -0.034 A 
BRANCH  12  13
ATOM     13  C27 FA4 d          24.465   4.546  12.756  0.00  0.00     0.177 C 
BRANCH  13  14
ATOM     14  N28 FA4 d          24.053   5.880  13.213  0.00  0.00    -0.223 N 
ATOM     15  C29 FA4 d          22.721   6.233  13.242  0.00  0.00     0.665 C 
ATOM     16  N30 FA4 d          22.300   7.130  14.127  0.00  0.00    -0.235 N 
ATOM     17  N31 FA4 d          21.838   5.684  12.395  0.00  0.00    -0.235 N 
ATOM     18  H40 FA4 d          21.306   7.399  14.155  0.00  0.00     0.174 HD
ATOM     19  H41 FA4 d          22.968   7.555  14.785  0.00  0.00     0.174 HD
ATOM     20  H42 FA4 d          22.152   4.987  11.704  0.00  0.00     0.174 HD
ATOM     21  H43 FA4 d          20.846   5.959  12.435  0.00  0.00     0.174 HD
ATOM     22  H39 FA4 d          24.767   6.558  13.516  0.00  0.00     0.178 HD
ENDBRANCH  13  14
ENDBRANCH  12  13
ENDBRANCH   6   7
ENDBRANCH   5   6
ENDBRANCH   4   5
ENDBRANCH   3   4
ENDBRANCH   2   3
ENDBRANCH   1   2
BRANCH   1  23
ATOM     23  C13 FA4 d          19.009   4.899  15.392  0.00  0.00     0.000 C 
BRANCH  23  24
ATOM     24  C14 FA4 d          18.936   5.950  14.279  0.00  0.00     0.009 C 
BRANCH  24  25
ATOM     25  C15 FA4 d          17.746   5.766  13.336  0.00  0.00     0.103 C 
BRANCH  25  26
ATOM     26  C16 FA4 d          17.687   4.328  12.802  0.00  0.00     0.218 C 
ATOM     27  N17 FA4 d          18.676   4.098  11.909  0.00  0.00    -0.348 N 
ATOM     28  H23 FA4 d          19.310   4.837  11.683  0.00  0.00     0.163 HD
ATOM     29  O19 FA4 d          16.827   3.528  13.180  0.00  0.00    -0.274 OA
BRANCH  27  30
ATOM     30  C18 FA4 d          18.841   2.806  11.271  0.00  0.00     0.178 C 
BRANCH  30  31
ATOM     31  C20 FA4 d          20.133   2.186  11.809  0.00  0.00     0.035 C 
BRANCH  31  32
ATOM     32  C23 FA4 d          19.903   1.088  12.841  0.00  0.00     0.004 C 
BRANCH  32  33
ATOM     33  C24 FA4 d          18.939   0.018  12.329  0.00  0.00     0.027 C 
BRANCH  33  34
ATOM     34  C25 FA4 d          17.793  -0.253  13.306  0.00  0.00     0.229 C 
BRANCH  34  35
ATOM     35  N26 FA4 d          16.642   0.610  13.070  0.00  0.00    -0.079 N 
ATOM     36  H34 FA4 d          16.039   0.593  13.876  0.00  0.00     0.274 HD
ATOM     37  H35 FA4 d          16.135   0.280  12.263  0.00  0.00     0.274 HD
ATOM     38  H36 FA4 d          16.957   1.553  12.906  0.00  0.00     0.274 HD
ENDBRANCH  34  35
ENDBRANCH  33  34
ENDBRANCH  32  33
ENDBRANCH  31  32
ENDBRANCH  30  31
BRANCH  30  39
ATOM     39  C21 FA4 d          18.897   2.977   9.742  0.00  0.00     0.263 C 
ATOM     40  N22 FA4 d          20.141   3.092   9.254  0.00  0.00    -0.236 N 
ATOM     41  H27 FA4 d          20.928   3.066   9.869  0.00  0.00     0.197 HD
ATOM     42  O33 FA4 d          17.876   2.993   9.062  0.00  0.00    -0.269 OA
BRANCH  40  43
ATOM     43  O32 FA4 d          20.327   3.250   7.877  0.00  0.00    -0.287 OA
ATOM     44  H44 FA4 d          20.967   3.935   7.722  0.00  0.00     0.244 HD
ENDBRANCH  40  43
ENDBRANCH  30  39
ENDBRANCH  27  30
ENDBRANCH  25  26
ENDBRANCH  24  25
ENDBRANCH  23  24
ENDBRANCH   1  23
TORSDOF 20
ENDMDL
MODEL 6
REMARK VINA RESULT:      -8.2      6.397     11.266
REMARK  20 active torsions:
REMARK  status: ('A' for Active; 'I' for Inactive)
REMARK    1  A    between atoms: C3_3  and  C7_7 
REMARK    2  A    between atoms: C4_4  and  C27_27 
REMARK    3  A    between atoms: C7_7  and  C8_8 
REMARK    4  A    between atoms: C8_8  and  C9_9 
REMARK    5  A    between atoms: C9_9  and  C10_10 
REMARK    6  A    between atoms: C10_10  and  C11_11 
REMARK    7  A    between atoms: C11_11  and  C12_12 
REMARK    8  A    between atoms: C12_12  and  C13_13 
REMARK    9  A    between atoms: C13_13  and  C14_14 
REMARK   10  A    between atoms: C14_14  and  C15_15 
REMARK   11  A    between atoms: C15_15  and  C16_16 
REMARK       I    between atoms: C16_16  and  N17_17 
REMARK   12  A    between atoms: N17_17  and  C18_18 
REMARK   13  A    between atoms: C18_18  and  C20_20 
REMARK   14  A    between atoms: C18_18  and  C21_21 
REMARK   15  A    between atoms: C20_20  and  C23_23 
REMARK       I    between atoms: C21_21  and  N22_22 
REMARK   16  A    between atoms: N22_22  and  O32_32 
REMARK   17  A    between atoms: C23_23  and  C24_24 
REMARK   18  A    between atoms: C24_24  and  C25_25 
REMARK   19  A    between atoms: C25_25  and  N26_26 
REMARK   20  A    between atoms: C27_27  and  N28_28 
REMARK       I    between atoms: N28_28  and  C29_29 
REMARK       I    between atoms: C29_29  and  N30_30 
ROOT
ATOM      1  C12 FA4 d          21.550   1.996  11.589  0.00  0.00     0.000 C 
ENDROOT
BRANCH   1   2
ATOM      2  C11 FA4 d          21.676   1.184  12.881  0.00  0.00     0.000 C 
BRANCH   2   3
ATOM      3  C10 FA4 d          23.073   1.286  13.498  0.00  0.00     0.000 C 
BRANCH   3   4
ATOM      4  C9  FA4 d          23.064   1.834  14.929  0.00  0.00     0.000 C 
BRANCH   4   5
ATOM      5  C8  FA4 d          24.470   2.009  15.504  0.00  0.00     0.005 C 
BRANCH   5   6
ATOM      6  C7  FA4 d          25.567   1.836  14.439  0.00  0.00     0.039 C 
BRANCH   6   7
ATOM      7  C3  FA4 d          26.543   2.985  14.431  0.00  0.00    -0.050 A 
ATOM      8  C2  FA4 d          27.803   2.843  15.101  0.00  0.00     0.007 A 
ATOM      9  C1  FA4 d          28.747   3.914  15.112  0.00  0.00     0.001 A 
ATOM     10  C6  FA4 d          28.452   5.153  14.458  0.00  0.00     0.001 A 
ATOM     11  C5  FA4 d          27.197   5.321  13.778  0.00  0.00     0.009 A 
ATOM     12  C4  FA4 d          26.234   4.251  13.756  0.00  0.00    -0.034 A 
BRANCH  12  13
ATOM     13  C27 FA4 d          24.938   4.516  13.009  0.00  0.00     0.177 C 
BRANCH  13  14
ATOM     14  N28 FA4 d          24.285   5.738  13.497  0.00  0.00    -0.223 N 
ATOM     15  C29 FA4 d          22.935   5.940  13.299  0.00  0.00     0.665 C 
ATOM     16  N30 FA4 d          22.251   6.681  14.164  0.00  0.00    -0.235 N 
ATOM     17  N31 FA4 d          22.297   5.397  12.252  0.00  0.00    -0.235 N 
ATOM     18  H40 FA4 d          21.242   6.837  14.023  0.00  0.00     0.174 HD
ATOM     19  H41 FA4 d          22.729   7.100  14.974  0.00  0.00     0.174 HD
ATOM     20  H42 FA4 d          22.817   4.821  11.575  0.00  0.00     0.174 HD
ATOM     21  H43 FA4 d          21.288   5.558  12.124  0.00  0.00     0.174 HD
ATOM     22  H39 FA4 d          24.840   6.450  13.992  0.00  0.00     0.178 HD
ENDBRANCH  13  14
ENDBRANCH  12  13
ENDBRANCH   6   7
ENDBRANCH   5   6
ENDBRANCH   4   5
ENDBRANCH   3   4
ENDBRANCH   2   3
ENDBRANCH   1   2
BRANCH   1  23
ATOM     23  C13 FA4 d          20.204   1.818  10.897  0.00  0.00     0.000 C 
BRANCH  23  24
ATOM     24  C14 FA4 d          19.301   0.805  11.610  0.00  0.00     0.009 C 
BRANCH  24  25
ATOM     25  C15 FA4 d          17.890   0.721  11.028  0.00  0.00     0.103 C 
BRANCH  25  26
ATOM     26  C16 FA4 d          16.864   1.340  11.987  0.00  0.00     0.218 C 
ATOM     27  N17 FA4 d          17.374   1.467  13.232  0.00  0.00    -0.348 N 
ATOM     28  H23 FA4 d          18.309   1.160  13.409  0.00  0.00     0.163 HD
ATOM     29  O19 FA4 d          15.734   1.663  11.612  0.00  0.00    -0.274 OA
BRANCH  27  30
ATOM     30  C18 FA4 d          16.602   2.039  14.319  0.00  0.00     0.178 C 
BRANCH  30  31
ATOM     31  C20 FA4 d          17.301   3.329  14.754  0.00  0.00     0.035 C 
BRANCH  31  32
ATOM     32  C23 FA4 d          18.823   3.242  14.729  0.00  0.00     0.004 C 
BRANCH  32  33
ATOM     33  C24 FA4 d          19.440   4.323  13.841  0.00  0.00     0.027 C 
BRANCH  33  34
ATOM     34  C25 FA4 d          18.845   5.707  14.108  0.00  0.00     0.229 C 
BRANCH  34  35
ATOM     35  N26 FA4 d          18.297   6.321  12.905  0.00  0.00    -0.079 N 
ATOM     36  H34 FA4 d          18.118   7.297  13.077  0.00  0.00     0.274 HD
ATOM     37  H35 FA4 d          17.435   5.861  12.656  0.00  0.00     0.274 HD
ATOM     38  H36 FA4 d          18.957   6.229  12.149  0.00  0.00     0.274 HD
ENDBRANCH  34  35
ENDBRANCH  33  34
ENDBRANCH  32  33
ENDBRANCH  31  32
ENDBRANCH  30  31
BRANCH  30  39
ATOM     39  C21 FA4 d          16.504   1.036  15.481  0.00  0.00     0.263 C 
ATOM     40  N22 FA4 d          16.064   1.574  16.628  0.00  0.00    -0.236 N 
ATOM     41  H27 FA4 d          15.835   2.546  16.673  0.00  0.00     0.197 HD
ATOM     42  O33 FA4 d          16.802  -0.145  15.334  0.00  0.00    -0.269 OA
BRANCH  40  43
ATOM     43  O32 FA4 d          15.927   0.765  17.759  0.00  0.00    -0.287 OA
ATOM     44  H44 FA4 d          16.372  -0.061  17.611  0.00  0.00     0.244 HD
ENDBRANCH  40  43
ENDBRANCH  30  39
ENDBRANCH  27  30
ENDBRANCH  25  26
ENDBRANCH  24  25
ENDBRANCH  23  24
ENDBRANCH   1  23
TORSDOF 20
ENDMDL
MODEL 7
REMARK VINA RESULT:      -8.1      2.283      3.521
REMARK  20 active torsions:
REMARK  status: ('A' for Active; 'I' for Inactive)
REMARK    1  A    between atoms: C3_3  and  C7_7 
REMARK    2  A    between atoms: C4_4  and  C27_27 
REMARK    3  A    between atoms: C7_7  and  C8_8 
REMARK    4  A    between atoms: C8_8  and  C9_9 
REMARK    5  A    between atoms: C9_9  and  C10_10 
REMARK    6  A    between atoms: C10_10  and  C11_11 
REMARK    7  A    between atoms: C11_11  and  C12_12 
REMARK    8  A    between atoms: C12_12  and  C13_13 
REMARK    9  A    between atoms: C13_13  and  C14_14 
REMARK   10  A    between atoms: C14_14  and  C15_15 
REMARK   11  A    between atoms: C15_15  and  C16_16 
REMARK       I    between atoms: C16_16  and  N17_17 
REMARK   12  A    between atoms: N17_17  and  C18_18 
REMARK   13  A    between atoms: C18_18  and  C20_20 
REMARK   14  A    between atoms: C18_18  and  C21_21 
REMARK   15  A    between atoms: C20_20  and  C23_23 
REMARK       I    between atoms: C21_21  and  N22_22 
REMARK   16  A    between atoms: N22_22  and  O32_32 
REMARK   17  A    between atoms: C23_23  and  C24_24 
REMARK   18  A    between atoms: C24_24  and  C25_25 
REMARK   19  A    between atoms: C25_25  and  N26_26 
REMARK   20  A    between atoms: C27_27  and  N28_28 
REMARK       I    between atoms: N28_28  and  C29_29 
REMARK       I    between atoms: C29_29  and  N30_30 
ROOT
ATOM      1  C12 FA4 d          27.359   2.747  14.629  0.00  0.00     0.000 C 
ENDROOT
BRANCH   1   2
ATOM      2  C11 FA4 d          25.975   3.345  14.898  0.00  0.00     0.000 C 
BRANCH   2   3
ATOM      3  C10 FA4 d          24.878   2.278  14.936  0.00  0.00     0.000 C 
BRANCH   3   4
ATOM      4  C9  FA4 d          24.698   1.549  13.601  0.00  0.00     0.000 C 
BRANCH   4   5
ATOM      5  C8  FA4 d          23.240   1.181  13.321  0.00  0.00     0.005 C 
BRANCH   5   6
ATOM      6  C7  FA4 d          22.469   2.317  12.629  0.00  0.00     0.039 C 
BRANCH   6   7
ATOM      7  C3  FA4 d          21.117   2.555  13.254  0.00  0.00    -0.050 A 
ATOM      8  C2  FA4 d          19.996   1.769  12.826  0.00  0.00     0.007 A 
ATOM      9  C1  FA4 d          18.704   1.970  13.398  0.00  0.00     0.001 A 
ATOM     10  C6  FA4 d          18.500   2.965  14.407  0.00  0.00     0.001 A 
ATOM     11  C5  FA4 d          19.607   3.766  14.855  0.00  0.00     0.009 A 
ATOM     12  C4  FA4 d          20.917   3.575  14.289  0.00  0.00    -0.034 A 
BRANCH  12  13
ATOM     13  C27 FA4 d          22.027   4.462  14.827  0.00  0.00     0.177 C 
BRANCH  13  14
ATOM     14  N28 FA4 d          21.806   5.867  14.463  0.00  0.00    -0.223 N 
ATOM     15  C29 FA4 d          22.233   6.353  13.246  0.00  0.00     0.665 C 
ATOM     16  N30 FA4 d          21.587   7.368  12.683  0.00  0.00    -0.235 N 
ATOM     17  N31 FA4 d          23.288   5.817  12.614  0.00  0.00    -0.235 N 
ATOM     18  H40 FA4 d          21.900   7.737  11.774  0.00  0.00     0.174 HD
ATOM     19  H41 FA4 d          20.774   7.786  13.157  0.00  0.00     0.174 HD
ATOM     20  H42 FA4 d          23.797   5.029  13.040  0.00  0.00     0.174 HD
ATOM     21  H43 FA4 d          23.589   6.192  11.704  0.00  0.00     0.174 HD
ATOM     22  H39 FA4 d          21.328   6.496  15.124  0.00  0.00     0.178 HD
ENDBRANCH  13  14
ENDBRANCH  12  13
ENDBRANCH   6   7
ENDBRANCH   5   6
ENDBRANCH   4   5
ENDBRANCH   3   4
ENDBRANCH   2   3
ENDBRANCH   1   2
BRANCH   1  23
ATOM     23  C13 FA4 d          28.485   3.501  15.326  0.00  0.00     0.000 C 
BRANCH  23  24
ATOM     24  C14 FA4 d          28.194   4.999  15.469  0.00  0.00     0.009 C 
BRANCH  24  25
ATOM     25  C15 FA4 d          28.705   5.841  14.299  0.00  0.00     0.103 C 
BRANCH  25  26
ATOM     26  C16 FA4 d          29.750   6.860  14.774  0.00  0.00     0.218 C 
ATOM     27  N17 FA4 d          29.794   6.924  16.123  0.00  0.00    -0.348 N 
ATOM     28  H23 FA4 d          29.176   6.347  16.657  0.00  0.00     0.163 HD
ATOM     29  O19 FA4 d          30.437   7.507  13.978  0.00  0.00    -0.274 OA
BRANCH  27  30
ATOM     30  C18 FA4 d          30.712   7.806  16.816  0.00  0.00     0.178 C 
BRANCH  30  31
ATOM     31  C20 FA4 d          31.983   7.008  17.117  0.00  0.00     0.035 C 
BRANCH  31  32
ATOM     32  C23 FA4 d          33.204   7.480  16.335  0.00  0.00     0.004 C 
BRANCH  32  33
ATOM     33  C24 FA4 d          33.040   8.914  15.834  0.00  0.00     0.027 C 
BRANCH  33  34
ATOM     34  C25 FA4 d          33.518   9.088  14.391  0.00  0.00     0.229 C 
BRANCH  34  35
ATOM     35  N26 FA4 d          33.506   7.836  13.644  0.00  0.00    -0.079 N 
ATOM     36  H34 FA4 d          34.437   7.630  13.318  0.00  0.00     0.274 HD
ATOM     37  H35 FA4 d          32.885   7.922  12.854  0.00  0.00     0.274 HD
ATOM     38  H36 FA4 d          33.187   7.091  14.242  0.00  0.00     0.274 HD
ENDBRANCH  34  35
ENDBRANCH  33  34
ENDBRANCH  32  33
ENDBRANCH  31  32
ENDBRANCH  30  31
BRANCH  30  39
ATOM     39  C21 FA4 d          30.063   8.334  18.108  0.00  0.00     0.263 C 
ATOM     40  N22 FA4 d          30.391   7.634  19.204  0.00  0.00    -0.236 N 
ATOM     41  H27 FA4 d          31.004   6.848  19.136  0.00  0.00     0.197 HD
ATOM     42  O33 FA4 d          29.325   9.313  18.100  0.00  0.00    -0.269 OA
BRANCH  40  43
ATOM     43  O32 FA4 d          29.868   8.015  20.444  0.00  0.00    -0.287 OA
ATOM     44  H44 FA4 d          29.920   7.281  21.046  0.00  0.00     0.244 HD
ENDBRANCH  40  43
ENDBRANCH  30  39
ENDBRANCH  27  30
ENDBRANCH  25  26
ENDBRANCH  24  25
ENDBRANCH  23  24
ENDBRANCH   1  23
TORSDOF 20
ENDMDL
MODEL 8
REMARK VINA RESULT:      -7.9      3.827     10.838
REMARK  20 active torsions:
REMARK  status: ('A' for Active; 'I' for Inactive)
REMARK    1  A    between atoms: C3_3  and  C7_7 
REMARK    2  A    between atoms: C4_4  and  C27_27 
REMARK    3  A    between atoms: C7_7  and  C8_8 
REMARK    4  A    between atoms: C8_8  and  C9_9 
REMARK    5  A    between atoms: C9_9  and  C10_10 
REMARK    6  A    between atoms: C10_10  and  C11_11 
REMARK    7  A    between atoms: C11_11  and  C12_12 
REMARK    8  A    between atoms: C12_12  and  C13_13 
REMARK    9  A    between atoms: C13_13  and  C14_14 
REMARK   10  A    between atoms: C14_14  and  C15_15 
REMARK   11  A    between atoms: C15_15  and  C16_16 
REMARK       I    between atoms: C16_16  and  N17_17 
REMARK   12  A    between atoms: N17_17  and  C18_18 
REMARK   13  A    between atoms: C18_18  and  C20_20 
REMARK   14  A    between atoms: C18_18  and  C21_21 
REMARK   15  A    between atoms: C20_20  and  C23_23 
REMARK       I    between atoms: C21_21  and  N22_22 
REMARK   16  A    between atoms: N22_22  and  O32_32 
REMARK   17  A    between atoms: C23_23  and  C24_24 
REMARK   18  A    between atoms: C24_24  and  C25_25 
REMARK   19  A    between atoms: C25_25  and  N26_26 
REMARK   20  A    between atoms: C27_27  and  N28_28 
REMARK       I    between atoms: N28_28  and  C29_29 
REMARK       I    between atoms: C29_29  and  N30_30 
ROOT
ATOM      1  C12 FA4 d          26.637   3.382  14.784  0.00  0.00     0.000 C 
ENDROOT
BRANCH   1   2
ATOM      2  C11 FA4 d          28.066   2.970  15.148  0.00  0.00     0.000 C 
BRANCH   2   3
ATOM      3  C10 FA4 d          28.837   4.099  15.837  0.00  0.00     0.000 C 
BRANCH   3   4
ATOM      4  C9  FA4 d          29.703   4.915  14.873  0.00  0.00     0.000 C 
BRANCH   4   5
ATOM      5  C8  FA4 d          31.152   4.428  14.822  0.00  0.00     0.005 C 
BRANCH   5   6
ATOM      6  C7  FA4 d          32.046   5.129  15.859  0.00  0.00     0.039 C 
BRANCH   6   7
ATOM      7  C3  FA4 d          31.677   6.580  16.044  0.00  0.00    -0.050 A 
ATOM      8  C2  FA4 d          30.977   6.982  17.229  0.00  0.00     0.007 A 
ATOM      9  C1  FA4 d          30.614   8.348  17.433  0.00  0.00     0.001 A 
ATOM     10  C6  FA4 d          30.937   9.342  16.455  0.00  0.00     0.001 A 
ATOM     11  C5  FA4 d          31.640   8.966  15.258  0.00  0.00     0.009 A 
ATOM     12  C4  FA4 d          32.014   7.593  15.037  0.00  0.00    -0.034 A 
BRANCH  12  13
ATOM     13  C27 FA4 d          32.759   7.289  13.749  0.00  0.00     0.177 C 
BRANCH  13  14
ATOM     14  N28 FA4 d          33.815   8.280  13.500  0.00  0.00    -0.223 N 
ATOM     15  C29 FA4 d          34.609   8.192  12.376  0.00  0.00     0.665 C 
ATOM     16  N30 FA4 d          35.129   9.298  11.856  0.00  0.00    -0.235 N 
ATOM     17  N31 FA4 d          34.863   7.011  11.794  0.00  0.00    -0.235 N 
ATOM     18  H40 FA4 d          35.724   9.242  11.016  0.00  0.00     0.174 HD
ATOM     19  H41 FA4 d          34.938  10.211  12.291  0.00  0.00     0.174 HD
ATOM     20  H42 FA4 d          34.465   6.147  12.189  0.00  0.00     0.174 HD
ATOM     21  H43 FA4 d          35.456   6.968  10.954  0.00  0.00     0.174 HD
ATOM     22  H39 FA4 d          33.963   9.047  14.171  0.00  0.00     0.178 HD
ENDBRANCH  13  14
ENDBRANCH  12  13
ENDBRANCH   6   7
ENDBRANCH   5   6
ENDBRANCH   4   5
ENDBRANCH   3   4
ENDBRANCH   2   3
ENDBRANCH   1   2
BRANCH   1  23
ATOM     23  C13 FA4 d          26.009   2.491  13.718  0.00  0.00     0.000 C 
BRANCH  23  24
ATOM     24  C14 FA4 d          24.655   1.918  14.148  0.00  0.00     0.009 C 
BRANCH  24  25
ATOM     25  C15 FA4 d          24.230   2.333  15.558  0.00  0.00     0.103 C 
BRANCH  25  26
ATOM     26  C16 FA4 d          23.026   3.283  15.509  0.00  0.00     0.218 C 
ATOM     27  N17 FA4 d          22.648   3.528  14.234  0.00  0.00    -0.348 N 
ATOM     28  H23 FA4 d          23.158   3.105  13.486  0.00  0.00     0.163 HD
ATOM     29  O19 FA4 d          22.508   3.731  16.535  0.00  0.00    -0.274 OA
BRANCH  27  30
ATOM     30  C18 FA4 d          21.523   4.389  13.924  0.00  0.00     0.178 C 
BRANCH  30  31
ATOM     31  C20 FA4 d          21.109   4.107  12.478  0.00  0.00     0.035 C 
BRANCH  31  32
ATOM     32  C23 FA4 d          21.944   3.026  11.800  0.00  0.00     0.004 C 
BRANCH  32  33
ATOM     33  C24 FA4 d          21.169   2.325  10.684  0.00  0.00     0.027 C 
BRANCH  33  34
ATOM     34  C25 FA4 d          19.673   2.223  10.987  0.00  0.00     0.229 C 
BRANCH  34  35
ATOM     35  N26 FA4 d          19.119   0.921  10.635  0.00  0.00    -0.079 N 
ATOM     36  H34 FA4 d          18.216   1.045  10.206  0.00  0.00     0.274 HD
ATOM     37  H35 FA4 d          19.022   0.361  11.468  0.00  0.00     0.274 HD
ATOM     38  H36 FA4 d          19.737   0.457   9.988  0.00  0.00     0.274 HD
ENDBRANCH  34  35
ENDBRANCH  33  34
ENDBRANCH  32  33
ENDBRANCH  31  32
ENDBRANCH  30  31
BRANCH  30  39
ATOM     39  C21 FA4 d          21.919   5.865  14.115  0.00  0.00     0.263 C 
ATOM     40  N22 FA4 d          21.487   6.398  15.266  0.00  0.00    -0.236 N 
ATOM     41  H27 FA4 d          20.956   5.847  15.910  0.00  0.00     0.197 HD
ATOM     42  O33 FA4 d          22.579   6.464  13.272  0.00  0.00    -0.269 OA
BRANCH  40  43
ATOM     43  O32 FA4 d          21.784   7.732  15.560  0.00  0.00    -0.287 OA
ATOM     44  H44 FA4 d          21.631   8.266  14.789  0.00  0.00     0.244 HD
ENDBRANCH  40  43
ENDBRANCH  30  39
ENDBRANCH  27  30
ENDBRANCH  25  26
ENDBRANCH  24  25
ENDBRANCH  23  24
ENDBRANCH   1  23
TORSDOF 20
ENDMDL
MODEL 9
REMARK VINA RESULT:      -7.9      4.697      7.775
REMARK  20 active torsions:
REMARK  status: ('A' for Active; 'I' for Inactive)
REMARK    1  A    between atoms: C3_3  and  C7_7 
REMARK    2  A    between atoms: C4_4  and  C27_27 
REMARK    3  A    between atoms: C7_7  and  C8_8 
REMARK    4  A    between atoms: C8_8  and  C9_9 
REMARK    5  A    between atoms: C9_9  and  C10_10 
REMARK    6  A    between atoms: C10_10  and  C11_11 
REMARK    7  A    between atoms: C11_11  and  C12_12 
REMARK    8  A    between atoms: C12_12  and  C13_13 
REMARK    9  A    between atoms: C13_13  and  C14_14 
REMARK   10  A    between atoms: C14_14  and  C15_15 
REMARK   11  A    between atoms: C15_15  and  C16_16 
REMARK       I    between atoms: C16_16  and  N17_17 
REMARK   12  A    between atoms: N17_17  and  C18_18 
REMARK   13  A    between atoms: C18_18  and  C20_20 
REMARK   14  A    between atoms: C18_18  and  C21_21 
REMARK   15  A    between atoms: C20_20  and  C23_23 
REMARK       I    between atoms: C21_21  and  N22_22 
REMARK   16  A    between atoms: N22_22  and  O32_32 
REMARK   17  A    between atoms: C23_23  and  C24_24 
REMARK   18  A    between atoms: C24_24  and  C25_25 
REMARK   19  A    between atoms: C25_25  and  N26_26 
REMARK   20  A    between atoms: C27_27  and  N28_28 
REMARK       I    between atoms: N28_28  and  C29_29 
REMARK       I    between atoms: C29_29  and  N30_30 
ROOT
ATOM      1  C12 FA4 d          20.310   6.929  16.584  0.00  0.00     0.000 C 
ENDROOT
BRANCH   1   2
ATOM      2  C11 FA4 d          21.131   5.637  16.639  0.00  0.00     0.000 C 
BRANCH   2   3
ATOM      3  C10 FA4 d          20.351   4.431  16.110  0.00  0.00     0.000 C 
BRANCH   3   4
ATOM      4  C9  FA4 d          18.833   4.601  16.211  0.00  0.00     0.000 C 
BRANCH   4   5
ATOM      5  C8  FA4 d          18.108   4.227  14.918  0.00  0.00     0.005 C 
BRANCH   5   6
ATOM      6  C7  FA4 d          18.643   2.923  14.300  0.00  0.00     0.039 C 
BRANCH   6   7
ATOM      7  C3  FA4 d          17.621   1.815  14.330  0.00  0.00    -0.050 A 
ATOM      8  C2  FA4 d          16.751   1.690  15.463  0.00  0.00     0.007 A 
ATOM      9  C1  FA4 d          15.774   0.650  15.521  0.00  0.00     0.001 A 
ATOM     10  C6  FA4 d          15.648  -0.292  14.451  0.00  0.00     0.001 A 
ATOM     11  C5  FA4 d          16.507  -0.189  13.303  0.00  0.00     0.009 A 
ATOM     12  C4  FA4 d          17.497   0.854  13.227  0.00  0.00    -0.034 A 
BRANCH  12  13
ATOM     13  C27 FA4 d          18.355   0.889  11.975  0.00  0.00     0.177 C 
BRANCH  13  14
ATOM     14  N28 FA4 d          17.636   1.511  10.856  0.00  0.00    -0.223 N 
ATOM     15  C29 FA4 d          18.119   2.656  10.259  0.00  0.00     0.665 C 
ATOM     16  N30 FA4 d          17.847   2.892   8.981  0.00  0.00    -0.235 N 
ATOM     17  N31 FA4 d          18.865   3.535  10.944  0.00  0.00    -0.235 N 
ATOM     18  H40 FA4 d          18.204   3.745   8.527  0.00  0.00     0.174 HD
ATOM     19  H41 FA4 d          17.278   2.223   8.443  0.00  0.00     0.174 HD
ATOM     20  H42 FA4 d          19.084   3.362  11.935  0.00  0.00     0.174 HD
ATOM     21  H43 FA4 d          19.220   4.382  10.478  0.00  0.00     0.174 HD
ATOM     22  H39 FA4 d          16.761   1.087  10.513  0.00  0.00     0.178 HD
ENDBRANCH  13  14
ENDBRANCH  12  13
ENDBRANCH   6   7
ENDBRANCH   5   6
ENDBRANCH   4   5
ENDBRANCH   3   4
ENDBRANCH   2   3
ENDBRANCH   1   2
BRANCH   1  23
ATOM     23  C13 FA4 d          20.422   7.656  15.249  0.00  0.00     0.000 C 
BRANCH  23  24
ATOM     24  C14 FA4 d          21.784   7.449  14.576  0.00  0.00     0.009 C 
BRANCH  24  25
ATOM     25  C15 FA4 d          21.688   6.931  13.140  0.00  0.00     0.103 C 
BRANCH  25  26
ATOM     26  C16 FA4 d          22.189   5.483  13.047  0.00  0.00     0.218 C 
ATOM     27  N17 FA4 d          23.413   5.352  13.604  0.00  0.00    -0.348 N 
ATOM     28  H23 FA4 d          23.859   6.157  13.994  0.00  0.00     0.163 HD
ATOM     29  O19 FA4 d          21.513   4.593  12.522  0.00  0.00    -0.274 OA
BRANCH  27  30
ATOM     30  C18 FA4 d          24.097   4.074  13.653  0.00  0.00     0.178 C 
BRANCH  30  31
ATOM     31  C20 FA4 d          23.725   3.399  14.975  0.00  0.00     0.035 C 
BRANCH  31  32
ATOM     32  C23 FA4 d          23.543   1.889  14.865  0.00  0.00     0.004 C 
BRANCH  32  33
ATOM     33  C24 FA4 d          23.449   1.433  13.409  0.00  0.00     0.027 C 
BRANCH  33  34
ATOM     34  C25 FA4 d          22.002   1.254  12.946  0.00  0.00     0.229 C 
BRANCH  34  35
ATOM     35  N26 FA4 d          21.768   1.813  11.620  0.00  0.00    -0.079 N 
ATOM     36  H34 FA4 d          22.541   1.584  11.017  0.00  0.00     0.274 HD
ATOM     37  H35 FA4 d          21.680   2.815  11.689  0.00  0.00     0.274 HD
ATOM     38  H36 FA4 d          20.919   1.426  11.238  0.00  0.00     0.274 HD
ENDBRANCH  34  35
ENDBRANCH  33  34
ENDBRANCH  32  33
ENDBRANCH  31  32
ENDBRANCH  30  31
BRANCH  30  39
ATOM     39  C21 FA4 d          25.617   4.284  13.540  0.00  0.00     0.263 C 
ATOM     40  N22 FA4 d          26.000   5.561  13.688  0.00  0.00    -0.236 N 
ATOM     41  H27 FA4 d          25.321   6.276  13.853  0.00  0.00     0.197 HD
ATOM     42  O33 FA4 d          26.380   3.345  13.341  0.00  0.00    -0.269 OA
BRANCH  40  43
ATOM     43  O32 FA4 d          27.358   5.884  13.610  0.00  0.00    -0.287 OA
ATOM     44  H44 FA4 d          27.749   5.812  14.473  0.00  0.00     0.244 HD
ENDBRANCH  40  43
ENDBRANCH  30  39
ENDBRANCH  27  30
ENDBRANCH  25  26
ENDBRANCH  24  25
ENDBRANCH  23  24
ENDBRANCH   1  23
TORSDOF 20
ENDMDL
MODEL 10
REMARK VINA RESULT:      -7.9      3.873     10.835
REMARK  20 active torsions:
REMARK  status: ('A' for Active; 'I' for Inactive)
REMARK    1  A    between atoms: C3_3  and  C7_7 
REMARK    2  A    between atoms: C4_4  and  C27_27 
REMARK    3  A    between atoms: C7_7  and  C8_8 
REMARK    4  A    between atoms: C8_8  and  C9_9 
REMARK    5  A    between atoms: C9_9  and  C10_10 
REMARK    6  A    between atoms: C10_10  and  C11_11 
REMARK    7  A    between atoms: C11_11  and  C12_12 
REMARK    8  A    between atoms: C12_12  and  C13_13 
REMARK    9  A    between atoms: C13_13  and  C14_14 
REMARK   10  A    between atoms: C14_14  and  C15_15 
REMARK   11  A    between atoms: C15_15  and  C16_16 
REMARK       I    between atoms: C16_16  and  N17_17 
REMARK   12  A    between atoms: N17_17  and  C18_18 
REMARK   13  A    between atoms: C18_18  and  C20_20 
REMARK   14  A    between atoms: C18_18  and  C21_21 
REMARK   15  A    between atoms: C20_20  and  C23_23 
REMARK       I    between atoms: C21_21  and  N22_22 
REMARK   16  A    between atoms: N22_22  and  O32_32 
REMARK   17  A    between atoms: C23_23  and  C24_24 
REMARK   18  A    between atoms: C24_24  and  C25_25 
REMARK   19  A    between atoms: C25_25  and  N26_26 
REMARK   20  A    between atoms: C27_27  and  N28_28 
REMARK       I    between atoms: N28_28  and  C29_29 
REMARK       I    between atoms: C29_29  and  N30_30 
ROOT
ATOM      1  C12 FA4 d          26.706   3.735  14.869  0.00  0.00     0.000 C 
ENDROOT
BRANCH   1   2
ATOM      2  C11 FA4 d          28.068   3.102  15.169  0.00  0.00     0.000 C 
BRANCH   2   3
ATOM      3  C10 FA4 d          29.091   4.131  15.657  0.00  0.00     0.000 C 
BRANCH   3   4
ATOM      4  C9  FA4 d          28.671   5.578  15.382  0.00  0.00     0.000 C 
BRANCH   4   5
ATOM      5  C8  FA4 d          29.701   6.345  14.552  0.00  0.00     0.005 C 
BRANCH   5   6
ATOM      6  C7  FA4 d          31.142   5.879  14.824  0.00  0.00     0.039 C 
BRANCH   6   7
ATOM      7  C3  FA4 d          32.096   7.035  14.989  0.00  0.00    -0.050 A 
ATOM      8  C2  FA4 d          32.806   7.529  13.845  0.00  0.00     0.007 A 
ATOM      9  C1  FA4 d          33.717   8.621  13.970  0.00  0.00     0.001 A 
ATOM     10  C6  FA4 d          33.943   9.242  15.240  0.00  0.00     0.001 A 
ATOM     11  C5  FA4 d          33.242   8.767  16.402  0.00  0.00     0.009 A 
ATOM     12  C4  FA4 d          32.319   7.667  16.294  0.00  0.00    -0.034 A 
BRANCH  12  13
ATOM     13  C27 FA4 d          31.621   7.237  17.572  0.00  0.00     0.177 C 
BRANCH  13  14
ATOM     14  N28 FA4 d          30.299   7.866  17.692  0.00  0.00    -0.223 N 
ATOM     15  C29 FA4 d          30.160   9.102  18.288  0.00  0.00     0.665 C 
ATOM     16  N30 FA4 d          29.164   9.899  17.918  0.00  0.00    -0.235 N 
ATOM     17  N31 FA4 d          31.016   9.518  19.233  0.00  0.00    -0.235 N 
ATOM     18  H40 FA4 d          29.053  10.823  18.359  0.00  0.00     0.174 HD
ATOM     19  H41 FA4 d          28.503   9.592  17.191  0.00  0.00     0.174 HD
ATOM     20  H42 FA4 d          31.792   8.909  19.528  0.00  0.00     0.174 HD
ATOM     21  H43 FA4 d          30.897  10.446  19.664  0.00  0.00     0.174 HD
ATOM     22  H39 FA4 d          29.468   7.380  17.326  0.00  0.00     0.178 HD
ENDBRANCH  13  14
ENDBRANCH  12  13
ENDBRANCH   6   7
ENDBRANCH   5   6
ENDBRANCH   4   5
ENDBRANCH   3   4
ENDBRANCH   2   3
ENDBRANCH   1   2
BRANCH   1  23
ATOM     23  C13 FA4 d          26.023   3.134  13.645  0.00  0.00     0.000 C 
BRANCH  23  24
ATOM     24  C14 FA4 d          25.016   2.037  14.008  0.00  0.00     0.009 C 
BRANCH  24  25
ATOM     25  C15 FA4 d          24.614   2.034  15.484  0.00  0.00     0.103 C 
BRANCH  25  26
ATOM     26  C16 FA4 d          23.341   2.864  15.705  0.00  0.00     0.218 C 
ATOM     27  N17 FA4 d          22.591   2.917  14.582  0.00  0.00    -0.348 N 
ATOM     28  H23 FA4 d          22.914   2.451  13.759  0.00  0.00     0.163 HD
ATOM     29  O19 FA4 d          23.087   3.387  16.793  0.00  0.00    -0.274 OA
BRANCH  27  30
ATOM     30  C18 FA4 d          21.330   3.632  14.540  0.00  0.00     0.178 C 
BRANCH  30  31
ATOM     31  C20 FA4 d          20.478   3.004  13.435  0.00  0.00     0.035 C 
BRANCH  31  32
ATOM     32  C23 FA4 d          21.146   1.822  12.741  0.00  0.00     0.004 C 
BRANCH  32  33
ATOM     33  C24 FA4 d          21.680   2.201  11.360  0.00  0.00     0.027 C 
BRANCH  33  34
ATOM     34  C25 FA4 d          20.819   3.263  10.673  0.00  0.00     0.229 C 
BRANCH  34  35
ATOM     35  N26 FA4 d          19.786   2.683   9.825  0.00  0.00    -0.079 N 
ATOM     36  H34 FA4 d          18.933   3.210   9.926  0.00  0.00     0.274 HD
ATOM     37  H35 FA4 d          19.624   1.726  10.100  0.00  0.00     0.274 HD
ATOM     38  H36 FA4 d          20.085   2.710   8.864  0.00  0.00     0.274 HD
ENDBRANCH  34  35
ENDBRANCH  33  34
ENDBRANCH  32  33
ENDBRANCH  31  32
ENDBRANCH  30  31
BRANCH  30  39
ATOM     39  C21 FA4 d          21.580   5.127  14.272  0.00  0.00     0.263 C 
ATOM     40  N22 FA4 d          21.641   5.875  15.383  0.00  0.00    -0.236 N 
ATOM     41  H27 FA4 d          21.525   5.454  16.282  0.00  0.00     0.197 HD
ATOM     42  O33 FA4 d          21.716   5.558  13.132  0.00  0.00    -0.269 OA
BRANCH  40  43
ATOM     43  O32 FA4 d          21.867   7.250  15.274  0.00  0.00    -0.287 OA
ATOM     44  H44 FA4 d          21.390   7.590  14.526  0.00  0.00     0.244 HD
ENDBRANCH  40  43
ENDBRANCH  30  39
ENDBRANCH  27  30
ENDBRANCH  25  26
ENDBRANCH  24  25
ENDBRANCH  23  24
ENDBRANCH   1  23
TORSDOF 20
ENDMDL
