MODEL 1
REMARK VINA RESULT:      -8.8      0.000      0.000
REMARK  6 active torsions:
REMARK  status: ('A' for Active; 'I' for Inactive)
REMARK    1  A    between atoms: N1_1  and  S27_27 
REMARK    2  A    between atoms: C4_4  and  N7_7 
REMARK    3  A    between atoms: N7_7  and  C8_8 
REMARK    4  A    between atoms: C11_11  and  C14_14 
REMARK    5  A    between atoms: C14_14  and  C16_16 
REMARK    6  A    between atoms: C21_21  and  O22_22 
ROOT
ATOM      1  C8  LIA d          -1.546  24.795  11.052  0.00  0.00     0.724 A 
ATOM      2  N9  LIA d          -0.882  24.543   9.892  0.00  0.00    -0.074 NA
ATOM      3  C10 LIA d           0.159  25.249   9.572  0.00  0.00     0.155 A 
ATOM      4  C11 LIA d           0.668  26.321  10.408  0.00  0.00     0.079 A 
ATOM      5  C12 LIA d          -0.060  26.549  11.636  0.00  0.00     0.156 A 
ATOM      6  N13 LIA d          -1.157  25.771  11.923  0.00  0.00    -0.045 NA
ATOM      7  N26 LIA d           0.278  27.499  12.528  0.00  0.00    -0.383 N 
ATOM      8  H17 LIA d          -0.277  27.619  13.388  0.00  0.00     0.157 HD
ATOM      9  H18 LIA d           1.091  28.107  12.351  0.00  0.00     0.157 HD
ENDROOT
BRANCH   1  10
ATOM     10  N7  LIA d          -2.651  24.078  11.409  0.00  0.00    -0.218 N 
ATOM     11  H10 LIA d          -2.906  23.187  10.959  0.00  0.00     0.178 HD
BRANCH  10  12
ATOM     12  C4  LIA d          -3.447  24.679  12.487  0.00  0.00     0.101 C 
ATOM     13  C3  LIA d          -4.871  24.949  11.937  0.00  0.00     0.041 C 
ATOM     14  C2  LIA d          -5.808  25.441  13.061  0.00  0.00     0.109 C 
ATOM     15  N1  LIA d          -5.859  24.422  14.147  0.00  0.00    -0.211 NA
ATOM     16  C6  LIA d          -4.517  24.274  14.785  0.00  0.00     0.109 C 
ATOM     17  C5  LIA d          -3.512  23.740  13.741  0.00  0.00     0.041 C 
BRANCH  15  18
ATOM     18  S27 LIA d          -7.040  24.827  15.296  0.00  0.00     0.207 S 
ATOM     19  C28 LIA d          -6.386  24.825  17.003  0.00  0.00     0.180 C 
ATOM     20  O29 LIA d          -8.096  23.844  15.207  0.00  0.00    -0.212 OA
ATOM     21  O30 LIA d          -7.567  26.127  14.982  0.00  0.00    -0.212 OA
ENDBRANCH  15  18
ENDBRANCH  10  12
ENDBRANCH   1  10
BRANCH   4  22
ATOM     22  C14 LIA d           1.832  27.085   9.982  0.00  0.00     0.203 C 
ATOM     23  O15 LIA d           2.889  27.044  10.634  0.00  0.00    -0.286 OA
BRANCH  22  24
ATOM     24  C16 LIA d           1.785  27.929   8.809  0.00  0.00     0.090 A 
ATOM     25  C17 LIA d           2.611  27.608   7.674  0.00  0.00     0.171 A 
ATOM     26  C18 LIA d           2.574  28.421   6.499  0.00  0.00     0.156 A 
ATOM     27  F24 LIA d           3.422  26.555   7.698  0.00  0.00    -0.202 F 
ATOM     28  C19 LIA d           1.718  29.560   6.431  0.00  0.00     0.048 A 
ATOM     29  F25 LIA d           3.334  28.120   5.463  0.00  0.00    -0.203 F 
ATOM     30  C20 LIA d           0.894  29.901   7.540  0.00  0.00     0.041 A 
ATOM     31  C21 LIA d           0.906  29.101   8.748  0.00  0.00     0.085 A 
BRANCH  31  32
ATOM     32  O22 LIA d           0.108  29.408   9.872  0.00  0.00    -0.355 OA
ATOM     33  C23 LIA d          -1.310  29.452   9.571  0.00  0.00     0.210 C 
ENDBRANCH  31  32
ENDBRANCH  22  24
ENDBRANCH   4  22
TORSDOF 6
ENDMDL
MODEL 2
REMARK VINA RESULT:      -8.7      2.168      2.527
REMARK  6 active torsions:
REMARK  status: ('A' for Active; 'I' for Inactive)
REMARK    1  A    between atoms: N1_1  and  S27_27 
REMARK    2  A    between atoms: C4_4  and  N7_7 
REMARK    3  A    between atoms: N7_7  and  C8_8 
REMARK    4  A    between atoms: C11_11  and  C14_14 
REMARK    5  A    between atoms: C14_14  and  C16_16 
REMARK    6  A    between atoms: C21_21  and  O22_22 
ROOT
ATOM      1  C8  LIA d          -1.876  25.144  11.739  0.00  0.00     0.724 A 
ATOM      2  N9  LIA d          -0.540  25.176  11.995  0.00  0.00    -0.074 NA
ATOM      3  C10 LIA d           0.163  26.212  11.655  0.00  0.00     0.155 A 
ATOM      4  C11 LIA d          -0.412  27.371  10.999  0.00  0.00     0.079 A 
ATOM      5  C12 LIA d          -1.836  27.303  10.754  0.00  0.00     0.156 A 
ATOM      6  N13 LIA d          -2.531  26.179  11.135  0.00  0.00    -0.045 NA
ATOM      7  N26 LIA d          -2.530  28.290  10.160  0.00  0.00    -0.383 N 
ATOM      8  H17 LIA d          -3.545  28.189  10.010  0.00  0.00     0.157 HD
ATOM      9  H18 LIA d          -2.049  29.148   9.856  0.00  0.00     0.157 HD
ENDROOT
BRANCH   1  10
ATOM     10  N7  LIA d          -2.639  24.065  12.074  0.00  0.00    -0.218 N 
ATOM     11  H10 LIA d          -3.083  23.457  11.371  0.00  0.00     0.178 HD
BRANCH  10  12
ATOM     12  C4  LIA d          -2.776  23.837  13.519  0.00  0.00     0.101 C 
ATOM     13  C3  LIA d          -4.075  24.537  13.993  0.00  0.00     0.041 C 
ATOM     14  C2  LIA d          -4.363  24.211  15.474  0.00  0.00     0.109 C 
ATOM     15  N1  LIA d          -4.479  22.736  15.646  0.00  0.00    -0.211 NA
ATOM     16  C6  LIA d          -3.176  22.072  15.339  0.00  0.00     0.109 C 
ATOM     17  C5  LIA d          -2.823  22.306  13.854  0.00  0.00     0.041 C 
BRANCH  15  18
ATOM     18  S27 LIA d          -5.005  22.352  17.212  0.00  0.00     0.207 S 
ATOM     19  C28 LIA d          -6.614  23.118  17.619  0.00  0.00     0.180 C 
ATOM     20  O29 LIA d          -4.014  22.843  18.143  0.00  0.00    -0.212 OA
ATOM     21  O30 LIA d          -5.108  20.922  17.331  0.00  0.00    -0.212 OA
ENDBRANCH  15  18
ENDBRANCH  10  12
ENDBRANCH   1  10
BRANCH   4  22
ATOM     22  C14 LIA d           0.437  28.494  10.630  0.00  0.00     0.203 C 
ATOM     23  O15 LIA d           0.694  29.391  11.451  0.00  0.00    -0.286 OA
BRANCH  22  24
ATOM     24  C16 LIA d           0.983  28.612   9.297  0.00  0.00     0.090 A 
ATOM     25  C17 LIA d           2.182  27.890   8.958  0.00  0.00     0.171 A 
ATOM     26  C18 LIA d           2.736  27.982   7.643  0.00  0.00     0.156 A 
ATOM     27  F24 LIA d           2.796  27.128   9.858  0.00  0.00    -0.202 F 
ATOM     28  C19 LIA d           2.110  28.788   6.647  0.00  0.00     0.048 A 
ATOM     29  F25 LIA d           3.835  27.316   7.341  0.00  0.00    -0.203 F 
ATOM     30  C20 LIA d           0.926  29.515   6.956  0.00  0.00     0.041 A 
ATOM     31  C21 LIA d           0.337  29.446   8.278  0.00  0.00     0.085 A 
BRANCH  31  32
ATOM     32  O22 LIA d          -0.833  30.156   8.628  0.00  0.00    -0.355 OA
ATOM     33  C23 LIA d          -0.679  31.594   8.534  0.00  0.00     0.210 C 
ENDBRANCH  31  32
ENDBRANCH  22  24
ENDBRANCH   4  22
TORSDOF 6
ENDMDL
MODEL 3
REMARK VINA RESULT:      -8.6      1.481      2.193
REMARK  6 active torsions:
REMARK  status: ('A' for Active; 'I' for Inactive)
REMARK    1  A    between atoms: N1_1  and  S27_27 
REMARK    2  A    between atoms: C4_4  and  N7_7 
REMARK    3  A    between atoms: N7_7  and  C8_8 
REMARK    4  A    between atoms: C11_11  and  C14_14 
REMARK    5  A    between atoms: C14_14  and  C16_16 
REMARK    6  A    between atoms: C21_21  and  O22_22 
ROOT
ATOM      1  C8  LIA d          -1.597  24.848  11.019  0.00  0.00     0.724 A 
ATOM      2  N9  LIA d          -0.923  24.605   9.861  0.00  0.00    -0.074 NA
ATOM      3  C10 LIA d           0.131  25.300   9.564  0.00  0.00     0.155 A 
ATOM      4  C11 LIA d           0.648  26.349  10.423  0.00  0.00     0.079 A 
ATOM      5  C12 LIA d          -0.090  26.569  11.647  0.00  0.00     0.156 A 
ATOM      6  N13 LIA d          -1.202  25.804  11.909  0.00  0.00    -0.045 NA
ATOM      7  N26 LIA d           0.252  27.499  12.558  0.00  0.00    -0.383 N 
ATOM      8  H17 LIA d          -0.309  27.613  13.414  0.00  0.00     0.157 HD
ATOM      9  H18 LIA d           1.077  28.097  12.400  0.00  0.00     0.157 HD
ENDROOT
BRANCH   1  10
ATOM     10  N7  LIA d          -2.716  24.142  11.352  0.00  0.00    -0.218 N 
ATOM     11  H10 LIA d          -2.987  23.271  10.875  0.00  0.00     0.178 HD
BRANCH  10  12
ATOM     12  C4  LIA d          -3.503  24.727  12.446  0.00  0.00     0.101 C 
ATOM     13  C3  LIA d          -4.936  24.993  11.916  0.00  0.00     0.041 C 
ATOM     14  C2  LIA d          -5.862  25.465  13.057  0.00  0.00     0.109 C 
ATOM     15  N1  LIA d          -5.892  24.435  14.133  0.00  0.00    -0.211 NA
ATOM     16  C6  LIA d          -4.540  24.290  14.752  0.00  0.00     0.109 C 
ATOM     17  C5  LIA d          -3.546  23.774  13.691  0.00  0.00     0.041 C 
BRANCH  15  18
ATOM     18  S27 LIA d          -7.061  24.820  15.301  0.00  0.00     0.207 S 
ATOM     19  C28 LIA d          -6.376  24.848  16.996  0.00  0.00     0.180 C 
ATOM     20  O29 LIA d          -8.094  23.809  15.240  0.00  0.00    -0.212 OA
ATOM     21  O30 LIA d          -7.626  26.104  14.988  0.00  0.00    -0.212 OA
ENDBRANCH  15  18
ENDBRANCH  10  12
ENDBRANCH   1  10
BRANCH   4  22
ATOM     22  C14 LIA d           1.828  27.101  10.023  0.00  0.00     0.203 C 
ATOM     23  O15 LIA d           2.866  27.062  10.705  0.00  0.00    -0.286 OA
BRANCH  22  24
ATOM     24  C16 LIA d           1.820  27.932   8.839  0.00  0.00     0.090 A 
ATOM     25  C17 LIA d           0.947  29.076   8.784  0.00  0.00     0.171 A 
ATOM     26  C18 LIA d           0.929  29.918   7.629  0.00  0.00     0.156 A 
ATOM     27  F24 LIA d           0.142  29.369   9.802  0.00  0.00    -0.202 F 
ATOM     28  C19 LIA d           1.774  29.641   6.515  0.00  0.00     0.048 A 
ATOM     29  F25 LIA d           0.126  30.965   7.587  0.00  0.00    -0.203 F 
ATOM     30  C20 LIA d           2.644  28.514   6.542  0.00  0.00     0.041 A 
ATOM     31  C21 LIA d           2.689  27.638   7.695  0.00  0.00     0.085 A 
BRANCH  31  32
ATOM     32  O22 LIA d           3.533  26.508   7.760  0.00  0.00    -0.355 OA
ATOM     33  C23 LIA d           4.940  26.850   7.836  0.00  0.00     0.210 C 
ENDBRANCH  31  32
ENDBRANCH  22  24
ENDBRANCH   4  22
TORSDOF 6
ENDMDL
MODEL 4
REMARK VINA RESULT:      -8.5      5.829      9.791
REMARK  6 active torsions:
REMARK  status: ('A' for Active; 'I' for Inactive)
REMARK    1  A    between atoms: N1_1  and  S27_27 
REMARK    2  A    between atoms: C4_4  and  N7_7 
REMARK    3  A    between atoms: N7_7  and  C8_8 
REMARK    4  A    between atoms: C11_11  and  C14_14 
REMARK    5  A    between atoms: C14_14  and  C16_16 
REMARK    6  A    between atoms: C21_21  and  O22_22 
ROOT
ATOM      1  C8  LIA d           2.021  29.387   6.868  0.00  0.00     0.724 A 
ATOM      2  N9  LIA d           1.542  28.561   7.839  0.00  0.00    -0.074 NA
ATOM      3  C10 LIA d           0.645  28.989   8.672  0.00  0.00     0.155 A 
ATOM      4  C11 LIA d           0.106  30.336   8.624  0.00  0.00     0.079 A 
ATOM      5  C12 LIA d           0.633  31.178   7.573  0.00  0.00     0.156 A 
ATOM      6  N13 LIA d           1.585  30.672   6.719  0.00  0.00    -0.045 NA
ATOM      7  N26 LIA d           0.242  32.451   7.382  0.00  0.00    -0.383 N 
ATOM      8  H17 LIA d           0.651  33.007   6.616  0.00  0.00     0.157 HD
ATOM      9  H18 LIA d          -0.466  32.871   8.001  0.00  0.00     0.157 HD
ENDROOT
BRANCH   1  10
ATOM     10  N7  LIA d           2.974  28.970   5.986  0.00  0.00    -0.218 N 
ATOM     11  H10 LIA d           3.267  29.533   5.175  0.00  0.00     0.178 HD
BRANCH  10  12
ATOM     12  C4  LIA d           3.548  27.651   6.285  0.00  0.00     0.101 C 
ATOM     13  C3  LIA d           3.806  26.924   4.940  0.00  0.00     0.041 C 
ATOM     14  C2  LIA d           4.551  25.592   5.172  0.00  0.00     0.109 C 
ATOM     15  N1  LIA d           5.839  25.858   5.871  0.00  0.00    -0.211 NA
ATOM     16  C6  LIA d           5.587  26.414   7.234  0.00  0.00     0.109 C 
ATOM     17  C5  LIA d           4.879  27.780   7.104  0.00  0.00     0.041 C 
BRANCH  15  18
ATOM     18  S27 LIA d           6.781  24.448   5.951  0.00  0.00     0.207 S 
ATOM     19  C28 LIA d           6.908  23.787   7.650  0.00  0.00     0.180 C 
ATOM     20  O29 LIA d           8.110  24.779   5.486  0.00  0.00    -0.212 OA
ATOM     21  O30 LIA d           6.204  23.454   5.087  0.00  0.00    -0.212 OA
ENDBRANCH  15  18
ENDBRANCH  10  12
ENDBRANCH   1  10
BRANCH   4  22
ATOM     22  C14 LIA d          -0.888  30.757   9.600  0.00  0.00     0.203 C 
ATOM     23  O15 LIA d          -0.797  31.862  10.162  0.00  0.00    -0.286 OA
BRANCH  22  24
ATOM     24  C16 LIA d          -1.993  29.896   9.960  0.00  0.00     0.090 A 
ATOM     25  C17 LIA d          -3.154  29.842   9.110  0.00  0.00     0.171 A 
ATOM     26  C18 LIA d          -4.254  28.991   9.441  0.00  0.00     0.156 A 
ATOM     27  F24 LIA d          -3.226  30.581   8.008  0.00  0.00    -0.202 F 
ATOM     28  C19 LIA d          -4.219  28.182  10.614  0.00  0.00     0.048 A 
ATOM     29  F25 LIA d          -5.314  28.947   8.656  0.00  0.00    -0.203 F 
ATOM     30  C20 LIA d          -3.085  28.218  11.473  0.00  0.00     0.041 A 
ATOM     31  C21 LIA d          -1.952  29.070  11.171  0.00  0.00     0.085 A 
BRANCH  31  32
ATOM     32  O22 LIA d          -0.810  29.140  12.000  0.00  0.00    -0.355 OA
ATOM     33  C23 LIA d          -0.095  27.882  12.094  0.00  0.00     0.210 C 
ENDBRANCH  31  32
ENDBRANCH  22  24
ENDBRANCH   4  22
TORSDOF 6
ENDMDL
MODEL 5
REMARK VINA RESULT:      -8.3      2.576      3.158
REMARK  6 active torsions:
REMARK  status: ('A' for Active; 'I' for Inactive)
REMARK    1  A    between atoms: N1_1  and  S27_27 
REMARK    2  A    between atoms: C4_4  and  N7_7 
REMARK    3  A    between atoms: N7_7  and  C8_8 
REMARK    4  A    between atoms: C11_11  and  C14_14 
REMARK    5  A    between atoms: C14_14  and  C16_16 
REMARK    6  A    between atoms: C21_21  and  O22_22 
ROOT
ATOM      1  C8  LIA d          -1.664  24.870  11.791  0.00  0.00     0.724 A 
ATOM      2  N9  LIA d          -2.225  26.024  11.338  0.00  0.00    -0.074 NA
ATOM      3  C10 LIA d          -1.475  27.044  11.054  0.00  0.00     0.155 A 
ATOM      4  C11 LIA d          -0.031  27.021  11.194  0.00  0.00     0.079 A 
ATOM      5  C12 LIA d           0.526  25.774  11.668  0.00  0.00     0.156 A 
ATOM      6  N13 LIA d          -0.317  24.725  11.955  0.00  0.00    -0.045 NA
ATOM      7  N26 LIA d           1.845  25.577  11.850  0.00  0.00    -0.383 N 
ATOM      8  H17 LIA d           2.189  24.667  12.190  0.00  0.00     0.157 HD
ATOM      9  H18 LIA d           2.512  26.337  11.650  0.00  0.00     0.157 HD
ENDROOT
BRANCH   1  10
ATOM     10  N7  LIA d          -2.427  23.785  12.110  0.00  0.00    -0.218 N 
ATOM     11  H10 LIA d          -2.856  23.177  11.398  0.00  0.00     0.178 HD
BRANCH  10  12
ATOM     12  C4  LIA d          -2.589  23.555  13.552  0.00  0.00     0.101 C 
ATOM     13  C3  LIA d          -3.775  24.422  14.046  0.00  0.00     0.041 C 
ATOM     14  C2  LIA d          -4.100  24.115  15.523  0.00  0.00     0.109 C 
ATOM     15  N1  LIA d          -4.421  22.667  15.671  0.00  0.00    -0.211 NA
ATOM     16  C6  LIA d          -3.225  21.833  15.345  0.00  0.00     0.109 C 
ATOM     17  C5  LIA d          -2.848  22.040  13.863  0.00  0.00     0.041 C 
BRANCH  15  18
ATOM     18  S27 LIA d          -4.989  22.335  17.235  0.00  0.00     0.207 S 
ATOM     19  C28 LIA d          -6.579  23.162  17.594  0.00  0.00     0.180 C 
ATOM     20  O29 LIA d          -4.000  22.814  18.175  0.00  0.00    -0.212 OA
ATOM     21  O30 LIA d          -5.141  20.912  17.381  0.00  0.00    -0.212 OA
ENDBRANCH  15  18
ENDBRANCH  10  12
ENDBRANCH   1  10
BRANCH   4  22
ATOM     22  C14 LIA d           0.750  28.206  10.872  0.00  0.00     0.203 C 
ATOM     23  O15 LIA d           1.284  28.877  11.772  0.00  0.00    -0.286 OA
BRANCH  22  24
ATOM     24  C16 LIA d           0.906  28.650   9.505  0.00  0.00     0.090 A 
ATOM     25  C17 LIA d           0.252  29.860   9.076  0.00  0.00     0.171 A 
ATOM     26  C18 LIA d           0.400  30.325   7.732  0.00  0.00     0.156 A 
ATOM     27  F24 LIA d          -0.500  30.563   9.917  0.00  0.00    -0.202 F 
ATOM     28  C19 LIA d           1.197  29.601   6.797  0.00  0.00     0.048 A 
ATOM     29  F25 LIA d          -0.202  31.435   7.347  0.00  0.00    -0.203 F 
ATOM     30  C20 LIA d           1.851  28.401   7.194  0.00  0.00     0.041 A 
ATOM     31  C21 LIA d           1.723  27.899   8.547  0.00  0.00     0.085 A 
BRANCH  31  32
ATOM     32  O22 LIA d           2.351  26.710   8.980  0.00  0.00    -0.355 OA
ATOM     33  C23 LIA d           3.747  26.629   8.597  0.00  0.00     0.210 C 
ENDBRANCH  31  32
ENDBRANCH  22  24
ENDBRANCH   4  22
TORSDOF 6
ENDMDL
MODEL 6
REMARK VINA RESULT:      -8.2      5.591      9.953
REMARK  6 active torsions:
REMARK  status: ('A' for Active; 'I' for Inactive)
REMARK    1  A    between atoms: N1_1  and  S27_27 
REMARK    2  A    between atoms: C4_4  and  N7_7 
REMARK    3  A    between atoms: N7_7  and  C8_8 
REMARK    4  A    between atoms: C11_11  and  C14_14 
REMARK    5  A    between atoms: C14_14  and  C16_16 
REMARK    6  A    between atoms: C21_21  and  O22_22 
ROOT
ATOM      1  C8  LIA d           2.279  28.431   7.524  0.00  0.00     0.724 A 
ATOM      2  N9  LIA d           1.155  29.194   7.602  0.00  0.00    -0.074 NA
ATOM      3  C10 LIA d           0.437  29.186   8.683  0.00  0.00     0.155 A 
ATOM      4  C11 LIA d           0.776  28.387   9.846  0.00  0.00     0.079 A 
ATOM      5  C12 LIA d           1.982  27.598   9.726  0.00  0.00     0.156 A 
ATOM      6  N13 LIA d           2.704  27.644   8.556  0.00  0.00    -0.045 NA
ATOM      7  N26 LIA d           2.445  26.804  10.710  0.00  0.00    -0.383 N 
ATOM      8  H17 LIA d           3.311  26.263  10.571  0.00  0.00     0.157 HD
ATOM      9  H18 LIA d           1.934  26.738  11.602  0.00  0.00     0.157 HD
ENDROOT
BRANCH   1  10
ATOM     10  N7  LIA d           3.047  28.408   6.397  0.00  0.00    -0.218 N 
ATOM     11  H10 LIA d           3.131  29.217   5.764  0.00  0.00     0.178 HD
BRANCH  10  12
ATOM     12  C4  LIA d           3.746  27.138   6.159  0.00  0.00     0.101 C 
ATOM     13  C3  LIA d           3.801  26.902   4.628  0.00  0.00     0.041 C 
ATOM     14  C2  LIA d           4.657  25.660   4.297  0.00  0.00     0.109 C 
ATOM     15  N1  LIA d           6.031  25.843   4.841  0.00  0.00    -0.211 NA
ATOM     16  C6  LIA d           5.995  25.915   6.332  0.00  0.00     0.109 C 
ATOM     17  C5  LIA d           5.193  27.161   6.764  0.00  0.00     0.041 C 
BRANCH  15  18
ATOM     18  S27 LIA d           7.057  24.599   4.314  0.00  0.00     0.207 S 
ATOM     19  C28 LIA d           6.143  23.212   3.551  0.00  0.00     0.180 C 
ATOM     20  O29 LIA d           7.772  24.099   5.467  0.00  0.00    -0.212 OA
ATOM     21  O30 LIA d           7.994  25.139   3.366  0.00  0.00    -0.212 OA
ENDBRANCH  15  18
ENDBRANCH  10  12
ENDBRANCH   1  10
BRANCH   4  22
ATOM     22  C14 LIA d          -0.082  28.412  11.021  0.00  0.00     0.203 C 
ATOM     23  O15 LIA d           0.323  27.973  12.111  0.00  0.00    -0.286 OA
BRANCH  22  24
ATOM     24  C16 LIA d          -1.433  28.923  10.950  0.00  0.00     0.090 A 
ATOM     25  C17 LIA d          -1.652  30.346  10.967  0.00  0.00     0.171 A 
ATOM     26  C18 LIA d          -2.978  30.876  10.887  0.00  0.00     0.156 A 
ATOM     27  F24 LIA d          -0.630  31.192  11.059  0.00  0.00    -0.202 F 
ATOM     28  C19 LIA d          -4.102  30.004  10.788  0.00  0.00     0.048 A 
ATOM     29  F25 LIA d          -3.170  32.181  10.903  0.00  0.00    -0.203 F 
ATOM     30  C20 LIA d          -3.914  28.594  10.772  0.00  0.00     0.041 A 
ATOM     31  C21 LIA d          -2.585  28.021  10.852  0.00  0.00     0.085 A 
BRANCH  31  32
ATOM     32  O22 LIA d          -2.355  26.628  10.845  0.00  0.00    -0.355 OA
ATOM     33  C23 LIA d          -2.783  25.972  12.065  0.00  0.00     0.210 C 
ENDBRANCH  31  32
ENDBRANCH  22  24
ENDBRANCH   4  22
TORSDOF 6
ENDMDL
MODEL 7
REMARK VINA RESULT:      -8.1      2.424      3.296
REMARK  6 active torsions:
REMARK  status: ('A' for Active; 'I' for Inactive)
REMARK    1  A    between atoms: N1_1  and  S27_27 
REMARK    2  A    between atoms: C4_4  and  N7_7 
REMARK    3  A    between atoms: N7_7  and  C8_8 
REMARK    4  A    between atoms: C11_11  and  C14_14 
REMARK    5  A    between atoms: C14_14  and  C16_16 
REMARK    6  A    between atoms: C21_21  and  O22_22 
ROOT
ATOM      1  C8  LIA d          -1.333  24.124  12.255  0.00  0.00     0.724 A 
ATOM      2  N9  LIA d          -0.598  24.930  13.068  0.00  0.00    -0.074 NA
ATOM      3  C10 LIA d           0.079  25.917  12.567  0.00  0.00     0.155 A 
ATOM      4  C11 LIA d           0.096  26.217  11.147  0.00  0.00     0.079 A 
ATOM      5  C12 LIA d          -0.705  25.342  10.319  0.00  0.00     0.156 A 
ATOM      6  N13 LIA d          -1.402  24.311  10.905  0.00  0.00    -0.045 NA
ATOM      7  N26 LIA d          -0.806  25.480   8.984  0.00  0.00    -0.383 N 
ATOM      8  H17 LIA d          -1.392  24.828   8.441  0.00  0.00     0.157 HD
ATOM      9  H18 LIA d          -0.299  26.237   8.503  0.00  0.00     0.157 HD
ENDROOT
BRANCH   1  10
ATOM     10  N7  LIA d          -2.044  23.071  12.752  0.00  0.00    -0.218 N 
ATOM     11  H10 LIA d          -2.109  22.165  12.268  0.00  0.00     0.178 HD
BRANCH  10  12
ATOM     12  C4  LIA d          -2.711  23.336  14.034  0.00  0.00     0.101 C 
ATOM     13  C3  LIA d          -3.918  24.270  13.764  0.00  0.00     0.041 C 
ATOM     14  C2  LIA d          -4.756  24.467  15.045  0.00  0.00     0.109 C 
ATOM     15  N1  LIA d          -5.228  23.144  15.539  0.00  0.00    -0.211 NA
ATOM     16  C6  LIA d          -4.068  22.297  15.949  0.00  0.00     0.109 C 
ATOM     17  C5  LIA d          -3.188  22.006  14.715  0.00  0.00     0.041 C 
BRANCH  15  18
ATOM     18  S27 LIA d          -6.326  23.336  16.819  0.00  0.00     0.207 S 
ATOM     19  C28 LIA d          -6.021  24.861  17.780  0.00  0.00     0.180 C 
ATOM     20  O29 LIA d          -6.179  22.200  17.700  0.00  0.00    -0.212 OA
ATOM     21  O30 LIA d          -7.661  23.361  16.286  0.00  0.00    -0.212 OA
ENDBRANCH  15  18
ENDBRANCH  10  12
ENDBRANCH   1  10
BRANCH   4  22
ATOM     22  C14 LIA d           0.889  27.330  10.648  0.00  0.00     0.203 C 
ATOM     23  O15 LIA d           2.129  27.312  10.732  0.00  0.00    -0.286 OA
BRANCH  22  24
ATOM     24  C16 LIA d           0.261  28.494  10.065  0.00  0.00     0.090 A 
ATOM     25  C17 LIA d          -0.473  29.399  10.912  0.00  0.00     0.171 A 
ATOM     26  C18 LIA d          -1.094  30.563  10.361  0.00  0.00     0.156 A 
ATOM     27  F24 LIA d          -0.590  29.169  12.216  0.00  0.00    -0.202 F 
ATOM     28  C19 LIA d          -0.994  30.848   8.967  0.00  0.00     0.048 A 
ATOM     29  F25 LIA d          -1.765  31.387  11.144  0.00  0.00    -0.203 F 
ATOM     30  C20 LIA d          -0.277  29.969   8.108  0.00  0.00     0.041 A 
ATOM     31  C21 LIA d           0.363  28.779   8.630  0.00  0.00     0.085 A 
BRANCH  31  32
ATOM     32  O22 LIA d           1.080  27.878   7.812  0.00  0.00    -0.355 OA
ATOM     33  C23 LIA d           2.107  28.523   7.017  0.00  0.00     0.210 C 
ENDBRANCH  31  32
ENDBRANCH  22  24
ENDBRANCH   4  22
TORSDOF 6
ENDMDL
MODEL 8
REMARK VINA RESULT:      -8.0      5.540      9.350
REMARK  6 active torsions:
REMARK  status: ('A' for Active; 'I' for Inactive)
REMARK    1  A    between atoms: N1_1  and  S27_27 
REMARK    2  A    between atoms: C4_4  and  N7_7 
REMARK    3  A    between atoms: N7_7  and  C8_8 
REMARK    4  A    between atoms: C11_11  and  C14_14 
REMARK    5  A    between atoms: C14_14  and  C16_16 
REMARK    6  A    between atoms: C21_21  and  O22_22 
ROOT
ATOM      1  C8  LIA d           2.383  25.855  10.010  0.00  0.00     0.724 A 
ATOM      2  N9  LIA d           2.128  27.028   9.369  0.00  0.00    -0.074 NA
ATOM      3  C10 LIA d           1.269  27.865   9.861  0.00  0.00     0.155 A 
ATOM      4  C11 LIA d           0.546  27.615  11.094  0.00  0.00     0.079 A 
ATOM      5  C12 LIA d           0.852  26.363  11.750  0.00  0.00     0.156 A 
ATOM      6  N13 LIA d           1.771  25.512  11.181  0.00  0.00    -0.045 NA
ATOM      7  N26 LIA d           0.277  25.974  12.903  0.00  0.00    -0.383 N 
ATOM      8  H17 LIA d           0.532  25.070  13.327  0.00  0.00     0.157 HD
ATOM      9  H18 LIA d          -0.419  26.579  13.361  0.00  0.00     0.157 HD
ENDROOT
BRANCH   1  10
ATOM     10  N7  LIA d           3.272  24.949   9.510  0.00  0.00    -0.218 N 
ATOM     11  H10 LIA d           3.623  24.152  10.059  0.00  0.00     0.178 HD
BRANCH  10  12
ATOM     12  C4  LIA d           3.687  25.202   8.123  0.00  0.00     0.101 C 
ATOM     13  C3  LIA d           5.010  26.009   8.159  0.00  0.00     0.041 C 
ATOM     14  C2  LIA d           5.585  26.180   6.737  0.00  0.00     0.109 C 
ATOM     15  N1  LIA d           5.814  24.839   6.129  0.00  0.00    -0.211 NA
ATOM     16  C6  LIA d           4.517  24.121   5.949  0.00  0.00     0.109 C 
ATOM     17  C5  LIA d           3.882  23.862   7.332  0.00  0.00     0.041 C 
BRANCH  15  18
ATOM     18  S27 LIA d           6.643  24.981   4.655  0.00  0.00     0.207 S 
ATOM     19  C28 LIA d           6.443  23.507   3.593  0.00  0.00     0.180 C 
ATOM     20  O29 LIA d           8.049  25.144   4.954  0.00  0.00    -0.212 OA
ATOM     21  O30 LIA d           6.162  26.145   3.961  0.00  0.00    -0.212 OA
ENDBRANCH  15  18
ENDBRANCH  10  12
ENDBRANCH   1  10
BRANCH   4  22
ATOM     22  C14 LIA d          -0.417  28.590  11.584  0.00  0.00     0.203 C 
ATOM     23  O15 LIA d          -0.180  29.255  12.608  0.00  0.00    -0.286 OA
BRANCH  22  24
ATOM     24  C16 LIA d          -1.680  28.797  10.912  0.00  0.00     0.090 A 
ATOM     25  C17 LIA d          -2.819  28.000  11.288  0.00  0.00     0.171 A 
ATOM     26  C18 LIA d          -4.082  28.193  10.645  0.00  0.00     0.156 A 
ATOM     27  F24 LIA d          -2.718  27.070  12.233  0.00  0.00    -0.202 F 
ATOM     28  C19 LIA d          -4.234  29.178   9.626  0.00  0.00     0.048 A 
ATOM     29  F25 LIA d          -5.120  27.458  10.996  0.00  0.00    -0.203 F 
ATOM     30  C20 LIA d          -3.124  29.978   9.234  0.00  0.00     0.041 A 
ATOM     31  C21 LIA d          -1.829  29.809   9.862  0.00  0.00     0.085 A 
BRANCH  31  32
ATOM     32  O22 LIA d          -0.701  30.578   9.498  0.00  0.00    -0.355 OA
ATOM     33  C23 LIA d          -1.048  31.859   8.914  0.00  0.00     0.210 C 
ENDBRANCH  31  32
ENDBRANCH  22  24
ENDBRANCH   4  22
TORSDOF 6
ENDMDL
MODEL 9
REMARK VINA RESULT:      -8.0      5.193      9.374
REMARK  6 active torsions:
REMARK  status: ('A' for Active; 'I' for Inactive)
REMARK    1  A    between atoms: N1_1  and  S27_27 
REMARK    2  A    between atoms: C4_4  and  N7_7 
REMARK    3  A    between atoms: N7_7  and  C8_8 
REMARK    4  A    between atoms: C11_11  and  C14_14 
REMARK    5  A    between atoms: C14_14  and  C16_16 
REMARK    6  A    between atoms: C21_21  and  O22_22 
ROOT
ATOM      1  C8  LIA d           2.540  25.666   9.833  0.00  0.00     0.724 A 
ATOM      2  N9  LIA d           2.343  26.875   9.240  0.00  0.00    -0.074 NA
ATOM      3  C10 LIA d           1.527  27.734   9.770  0.00  0.00     0.155 A 
ATOM      4  C11 LIA d           0.794  27.470  10.994  0.00  0.00     0.079 A 
ATOM      5  C12 LIA d           1.039  26.178  11.598  0.00  0.00     0.156 A 
ATOM      6  N13 LIA d           1.914  25.307  10.991  0.00  0.00    -0.045 NA
ATOM      7  N26 LIA d           0.448  25.772  12.736  0.00  0.00    -0.383 N 
ATOM      8  H17 LIA d           0.659  24.840  13.123  0.00  0.00     0.157 HD
ATOM      9  H18 LIA d          -0.216  26.392  13.222  0.00  0.00     0.157 HD
ENDROOT
BRANCH   1  10
ATOM     10  N7  LIA d           3.381  24.738   9.292  0.00  0.00    -0.218 N 
ATOM     11  H10 LIA d           3.656  23.879   9.790  0.00  0.00     0.178 HD
BRANCH  10  12
ATOM     12  C4  LIA d           3.864  25.063   7.943  0.00  0.00     0.101 C 
ATOM     13  C3  LIA d           5.259  25.726   8.080  0.00  0.00     0.041 C 
ATOM     14  C2  LIA d           5.894  25.956   6.692  0.00  0.00     0.109 C 
ATOM     15  N1  LIA d           6.008  24.655   5.976  0.00  0.00    -0.211 NA
ATOM     16  C6  LIA d           4.653  24.089   5.704  0.00  0.00     0.109 C 
ATOM     17  C5  LIA d           3.950  23.782   7.043  0.00  0.00     0.041 C 
BRANCH  15  18
ATOM     18  S27 LIA d           6.894  24.835   4.540  0.00  0.00     0.207 S 
ATOM     19  C28 LIA d           6.197  26.119   3.442  0.00  0.00     0.180 C 
ATOM     20  O29 LIA d           6.864  23.569   3.842  0.00  0.00    -0.212 OA
ATOM     21  O30 LIA d           8.253  25.168   4.871  0.00  0.00    -0.212 OA
ENDBRANCH  15  18
ENDBRANCH  10  12
ENDBRANCH   1  10
BRANCH   4  22
ATOM     22  C14 LIA d          -0.117  28.471  11.527  0.00  0.00     0.203 C 
ATOM     23  O15 LIA d           0.187  29.133  12.535  0.00  0.00    -0.286 OA
BRANCH  22  24
ATOM     24  C16 LIA d          -1.407  28.708  10.919  0.00  0.00     0.090 A 
ATOM     25  C17 LIA d          -1.523  29.678   9.861  0.00  0.00     0.171 A 
ATOM     26  C18 LIA d          -2.786  29.922   9.237  0.00  0.00     0.156 A 
ATOM     27  F24 LIA d          -0.462  30.365   9.448  0.00  0.00    -0.202 F 
ATOM     28  C19 LIA d          -3.949  29.208   9.649  0.00  0.00     0.048 A 
ATOM     29  F25 LIA d          -2.882  30.813   8.268  0.00  0.00    -0.203 F 
ATOM     30  C20 LIA d          -3.863  28.246  10.695  0.00  0.00     0.041 A 
ATOM     31  C21 LIA d          -2.601  27.974  11.351  0.00  0.00     0.085 A 
BRANCH  31  32
ATOM     32  O22 LIA d          -2.473  27.031  12.396  0.00  0.00    -0.355 OA
ATOM     33  C23 LIA d          -3.150  25.779  12.120  0.00  0.00     0.210 C 
ENDBRANCH  31  32
ENDBRANCH  22  24
ENDBRANCH   4  22
TORSDOF 6
ENDMDL
MODEL 10
REMARK VINA RESULT:      -7.9      2.023      2.364
REMARK  6 active torsions:
REMARK  status: ('A' for Active; 'I' for Inactive)
REMARK    1  A    between atoms: N1_1  and  S27_27 
REMARK    2  A    between atoms: C4_4  and  N7_7 
REMARK    3  A    between atoms: N7_7  and  C8_8 
REMARK    4  A    between atoms: C11_11  and  C14_14 
REMARK    5  A    between atoms: C14_14  and  C16_16 
REMARK    6  A    between atoms: C21_21  and  O22_22 
ROOT
ATOM      1  C8  LIA d          -0.837  24.241  10.862  0.00  0.00     0.724 A 
ATOM      2  N9  LIA d          -1.487  25.257  10.231  0.00  0.00    -0.074 NA
ATOM      3  C10 LIA d          -0.894  26.397  10.053  0.00  0.00     0.155 A 
ATOM      4  C11 LIA d           0.462  26.657  10.502  0.00  0.00     0.079 A 
ATOM      5  C12 LIA d           1.120  25.549  11.160  0.00  0.00     0.156 A 
ATOM      6  N13 LIA d           0.442  24.363  11.322  0.00  0.00    -0.045 NA
ATOM      7  N26 LIA d           2.378  25.615  11.634  0.00  0.00    -0.383 N 
ATOM      8  H17 LIA d           2.799  24.795  12.095  0.00  0.00     0.157 HD
ATOM      9  H18 LIA d           2.920  26.485  11.537  0.00  0.00     0.157 HD
ENDROOT
BRANCH   1  10
ATOM     10  N7  LIA d          -1.439  23.036  11.074  0.00  0.00    -0.218 N 
ATOM     11  H10 LIA d          -1.170  22.182  10.565  0.00  0.00     0.178 HD
BRANCH  10  12
ATOM     12  C4  LIA d          -2.502  23.054  12.089  0.00  0.00     0.101 C 
ATOM     13  C3  LIA d          -2.121  22.041  13.199  0.00  0.00     0.041 C 
ATOM     14  C2  LIA d          -3.118  22.117  14.375  0.00  0.00     0.109 C 
ATOM     15  N1  LIA d          -3.135  23.502  14.923  0.00  0.00    -0.211 NA
ATOM     16  C6  LIA d          -3.653  24.460  13.901  0.00  0.00     0.109 C 
ATOM     17  C5  LIA d          -2.689  24.488  12.695  0.00  0.00     0.041 C 
BRANCH  15  18
ATOM     18  S27 LIA d          -4.055  23.574  16.347  0.00  0.00     0.207 S 
ATOM     19  C28 LIA d          -5.852  23.650  16.018  0.00  0.00     0.180 C 
ATOM     20  O29 LIA d          -3.668  24.769  17.062  0.00  0.00    -0.212 OA
ATOM     21  O30 LIA d          -3.760  22.418  17.150  0.00  0.00    -0.212 OA
ENDBRANCH  15  18
ENDBRANCH  10  12
ENDBRANCH   1  10
BRANCH   4  22
ATOM     22  C14 LIA d           1.062  27.964  10.285  0.00  0.00     0.203 C 
ATOM     23  O15 LIA d           1.284  28.726  11.242  0.00  0.00    -0.286 OA
BRANCH  22  24
ATOM     24  C16 LIA d           1.394  28.423   8.955  0.00  0.00     0.090 A 
ATOM     25  C17 LIA d           2.586  27.930   8.313  0.00  0.00     0.171 A 
ATOM     26  C18 LIA d           2.929  28.362   6.994  0.00  0.00     0.156 A 
ATOM     27  F24 LIA d           3.388  27.071   8.934  0.00  0.00    -0.202 F 
ATOM     28  C19 LIA d           2.098  29.283   6.293  0.00  0.00     0.048 A 
ATOM     29  F25 LIA d           4.023  27.905   6.414  0.00  0.00    -0.203 F 
ATOM     30  C20 LIA d           0.916  29.788   6.904  0.00  0.00     0.041 A 
ATOM     31  C21 LIA d           0.537  29.375   8.240  0.00  0.00     0.085 A 
BRANCH  31  32
ATOM     32  O22 LIA d          -0.624  29.856   8.885  0.00  0.00    -0.355 OA
ATOM     33  C23 LIA d          -0.837  31.276   8.692  0.00  0.00     0.210 C 
ENDBRANCH  31  32
ENDBRANCH  22  24
ENDBRANCH   4  22
TORSDOF 6
ENDMDL
