MODEL 1
REMARK VINA RESULT:      -6.9      0.000      0.000
REMARK  6 active torsions:
REMARK  status: ('A' for Active; 'I' for Inactive)
REMARK    1  A    between atoms: C1_1  and  O2_2 
REMARK    2  A    between atoms: O2_2  and  C12_16 
REMARK    3  A    between atoms: C4_7  and  C7_10 
REMARK    4  A    between atoms: C7_10  and  C8_12 
REMARK    5  A    between atoms: C8_12  and  C9_13 
REMARK    6  A    between atoms: C12_16  and  C13_17 
ROOT
ATOM      1  C1  EAA d           9.033   2.586  27.290  0.00  0.00     0.092 A 
ATOM      2  C2  EAA d           8.191   3.570  27.842  0.00  0.00     0.090 A 
ATOM      3 CL1  EAA d           8.400   5.193  27.310  0.00  0.00    -0.080 Cl
ATOM      4  C3  EAA d           7.227   3.239  28.737  0.00  0.00     0.072 A 
ATOM      5 CL2  EAA d           6.220   4.488  29.413  0.00  0.00    -0.081 Cl
ATOM      6  C4  EAA d           7.049   1.922  29.169  0.00  0.00     0.038 A 
ATOM      7  C5  EAA d           7.900   0.954  28.626  0.00  0.00     0.020 A 
ATOM      8  C6  EAA d           8.871   1.279  27.719  0.00  0.00     0.039 A 
ENDROOT
BRANCH   6   9
ATOM      9  C7  EAA d           5.906   1.517  30.049  0.00  0.00     0.189 C 
ATOM     10  O1  EAA d           4.833   1.251  29.569  0.00  0.00    -0.287 OA
BRANCH   9  11
ATOM     11  C8  EAA d           6.089   1.407  31.519  0.00  0.00    -0.017 C 
ATOM     12  C11 EAA d           5.693   2.386  32.280  0.00  0.00     0.023 C 
BRANCH  11  13
ATOM     13  C9  EAA d           6.667   0.130  32.010  0.00  0.00     0.037 C 
ATOM     14  C10 EAA d           6.765  -0.084  33.446  0.00  0.00     0.010 C 
ENDBRANCH  11  13
ENDBRANCH   9  11
ENDBRANCH   6   9
BRANCH   1  15
ATOM     15  O2  EAA d           9.965   3.014  26.399  0.00  0.00    -0.339 OA
BRANCH  15  16
ATOM     16  C12 EAA d           9.654   2.933  25.026  0.00  0.00     0.288 C 
BRANCH  16  17
ATOM     17  C13 EAA d          10.450   1.853  24.393  0.00  0.00     0.198 C 
ATOM     18  O   EAA d          11.639   2.161  24.098  0.00  0.00    -0.646 OA
ATOM     19  OXT EAA d           9.962   0.703  24.203  0.00  0.00    -0.646 OA
ENDBRANCH  16  17
ENDBRANCH  15  16
ENDBRANCH   1  15
TORSDOF 6
ENDMDL
MODEL 2
REMARK VINA RESULT:      -6.5      1.653      6.635
REMARK  6 active torsions:
REMARK  status: ('A' for Active; 'I' for Inactive)
REMARK    1  A    between atoms: C1_1  and  O2_2 
REMARK    2  A    between atoms: O2_2  and  C12_16 
REMARK    3  A    between atoms: C4_7  and  C7_10 
REMARK    4  A    between atoms: C7_10  and  C8_12 
REMARK    5  A    between atoms: C8_12  and  C9_13 
REMARK    6  A    between atoms: C12_16  and  C13_17 
ROOT
ATOM      1  C1  EAA d           6.974   1.423  29.576  0.00  0.00     0.092 A 
ATOM      2  C2  EAA d           6.874   2.792  29.259  0.00  0.00     0.090 A 
ATOM      3 CL1  EAA d           5.745   3.738  30.147  0.00  0.00    -0.080 Cl
ATOM      4  C3  EAA d           7.669   3.346  28.310  0.00  0.00     0.072 A 
ATOM      5 CL2  EAA d           7.500   5.037  27.932  0.00  0.00    -0.081 Cl
ATOM      6  C4  EAA d           8.591   2.583  27.590  0.00  0.00     0.038 A 
ATOM      7  C5  EAA d           8.673   1.222  27.901  0.00  0.00     0.020 A 
ATOM      8  C6  EAA d           7.879   0.657  28.861  0.00  0.00     0.039 A 
ENDROOT
BRANCH   6   9
ATOM      9  C7  EAA d           9.569   3.200  26.638  0.00  0.00     0.189 C 
ATOM     10  O1  EAA d          10.571   3.729  27.051  0.00  0.00    -0.287 OA
BRANCH   9  11
ATOM     11  C8  EAA d           9.334   3.141  25.172  0.00  0.00    -0.017 C 
ATOM     12  C11 EAA d           8.604   4.063  24.612  0.00  0.00     0.023 C 
BRANCH  11  13
ATOM     13  C9  EAA d          10.019   2.043  24.445  0.00  0.00     0.037 C 
ATOM     14  C10 EAA d          11.187   2.362  23.638  0.00  0.00     0.010 C 
ENDBRANCH  11  13
ENDBRANCH   9  11
ENDBRANCH   6   9
BRANCH   1  15
ATOM     15  O2  EAA d           6.140   0.961  30.543  0.00  0.00    -0.339 OA
BRANCH  15  16
ATOM     16  C12 EAA d           6.658   0.047  31.484  0.00  0.00     0.288 C 
BRANCH  16  17
ATOM     17  C13 EAA d           6.464   0.572  32.857  0.00  0.00     0.198 C 
ATOM     18  O   EAA d           5.922   1.711  32.926  0.00  0.00    -0.646 OA
ATOM     19  OXT EAA d           6.794  -0.104  33.872  0.00  0.00    -0.646 OA
ENDBRANCH  16  17
ENDBRANCH  15  16
ENDBRANCH   1  15
TORSDOF 6
ENDMDL
MODEL 3
REMARK VINA RESULT:      -6.2      1.730      2.053
REMARK  6 active torsions:
REMARK  status: ('A' for Active; 'I' for Inactive)
REMARK    1  A    between atoms: C1_1  and  O2_2 
REMARK    2  A    between atoms: O2_2  and  C12_16 
REMARK    3  A    between atoms: C4_7  and  C7_10 
REMARK    4  A    between atoms: C7_10  and  C8_12 
REMARK    5  A    between atoms: C8_12  and  C9_13 
REMARK    6  A    between atoms: C12_16  and  C13_17 
ROOT
ATOM      1  C1  EAA d           7.686   1.869  28.188  0.00  0.00     0.092 A 
ATOM      2  C2  EAA d           7.020   2.853  28.944  0.00  0.00     0.090 A 
ATOM      3 CL1  EAA d           6.857   4.420  28.253  0.00  0.00    -0.080 Cl
ATOM      4  C3  EAA d           6.497   2.560  30.160  0.00  0.00     0.072 A 
ATOM      5 CL2  EAA d           5.700   3.810  31.074  0.00  0.00    -0.081 Cl
ATOM      6  C4  EAA d           6.622   1.288  30.725  0.00  0.00     0.038 A 
ATOM      7  C5  EAA d           7.297   0.322  29.973  0.00  0.00     0.020 A 
ATOM      8  C6  EAA d           7.823   0.608  28.743  0.00  0.00     0.039 A 
ENDROOT
BRANCH   6   9
ATOM      9  C7  EAA d           5.935   0.909  32.001  0.00  0.00     0.189 C 
ATOM     10  O1  EAA d           6.278   1.402  33.047  0.00  0.00    -0.287 OA
BRANCH   9  11
ATOM     11  C8  EAA d           4.803  -0.052  31.991  0.00  0.00    -0.017 C 
ATOM     12  C11 EAA d           3.743   0.226  31.287  0.00  0.00     0.023 C 
BRANCH  11  13
ATOM     13  C9  EAA d           5.006  -1.308  32.756  0.00  0.00     0.037 C 
ATOM     14  C10 EAA d           6.167  -2.131  32.451  0.00  0.00     0.010 C 
ENDBRANCH  11  13
ENDBRANCH   9  11
ENDBRANCH   6   9
BRANCH   1  15
ATOM     15  O2  EAA d           8.172   2.257  26.981  0.00  0.00    -0.339 OA
BRANCH  15  16
ATOM     16  C12 EAA d           9.568   2.405  26.844  0.00  0.00     0.288 C 
BRANCH  16  17
ATOM     17  C13 EAA d          10.035   1.685  25.634  0.00  0.00     0.198 C 
ATOM     18  O   EAA d          10.740   2.367  24.840  0.00  0.00    -0.646 OA
ATOM     19  OXT EAA d           9.762   0.465  25.450  0.00  0.00    -0.646 OA
ENDBRANCH  16  17
ENDBRANCH  15  16
ENDBRANCH   1  15
TORSDOF 6
ENDMDL
MODEL 4
REMARK VINA RESULT:      -6.2      1.416      1.806
REMARK  6 active torsions:
REMARK  status: ('A' for Active; 'I' for Inactive)
REMARK    1  A    between atoms: C1_1  and  O2_2 
REMARK    2  A    between atoms: O2_2  and  C12_16 
REMARK    3  A    between atoms: C4_7  and  C7_10 
REMARK    4  A    between atoms: C7_10  and  C8_12 
REMARK    5  A    between atoms: C8_12  and  C9_13 
REMARK    6  A    between atoms: C12_16  and  C13_17 
ROOT
ATOM      1  C1  EAA d           9.523   2.948  26.891  0.00  0.00     0.092 A 
ATOM      2  C2  EAA d           8.587   3.789  27.524  0.00  0.00     0.090 A 
ATOM      3 CL1  EAA d           8.716   5.482  27.246  0.00  0.00    -0.080 Cl
ATOM      4  C3  EAA d           7.600   3.274  28.298  0.00  0.00     0.072 A 
ATOM      5 CL2  EAA d           6.476   4.348  29.081  0.00  0.00    -0.081 Cl
ATOM      6  C4  EAA d           7.487   1.899  28.523  0.00  0.00     0.038 A 
ATOM      7  C5  EAA d           8.429   1.073  27.901  0.00  0.00     0.020 A 
ATOM      8  C6  EAA d           9.424   1.585  27.115  0.00  0.00     0.039 A 
ENDROOT
BRANCH   6   9
ATOM      9  C7  EAA d           6.328   1.302  29.260  0.00  0.00     0.189 C 
ATOM     10  O1  EAA d           5.277   1.122  28.698  0.00  0.00    -0.287 OA
BRANCH   9  11
ATOM     11  C8  EAA d           6.467   0.896  30.682  0.00  0.00    -0.017 C 
ATOM     12  C11 EAA d           6.131   1.739  31.616  0.00  0.00     0.023 C 
BRANCH  11  13
ATOM     13  C9  EAA d           6.931  -0.494  30.920  0.00  0.00     0.037 C 
ATOM     14  C10 EAA d           5.945  -1.514  31.246  0.00  0.00     0.010 C 
ENDBRANCH  11  13
ENDBRANCH   9  11
ENDBRANCH   6   9
BRANCH   1  15
ATOM     15  O2  EAA d          10.471   3.557  26.133  0.00  0.00    -0.339 OA
BRANCH  15  16
ATOM     16  C12 EAA d          10.493   3.279  24.750  0.00  0.00     0.288 C 
BRANCH  16  17
ATOM     17  C13 EAA d           9.936   4.429  23.996  0.00  0.00     0.198 C 
ATOM     18  O   EAA d           8.681   4.425  23.858  0.00  0.00    -0.646 OA
ATOM     19  OXT EAA d          10.681   5.352  23.562  0.00  0.00    -0.646 OA
ENDBRANCH  16  17
ENDBRANCH  15  16
ENDBRANCH   1  15
TORSDOF 6
ENDMDL
MODEL 5
REMARK VINA RESULT:      -6.1      2.661      3.632
REMARK  6 active torsions:
REMARK  status: ('A' for Active; 'I' for Inactive)
REMARK    1  A    between atoms: C1_1  and  O2_2 
REMARK    2  A    between atoms: O2_2  and  C12_16 
REMARK    3  A    between atoms: C4_7  and  C7_10 
REMARK    4  A    between atoms: C7_10  and  C8_12 
REMARK    5  A    between atoms: C8_12  and  C9_13 
REMARK    6  A    between atoms: C12_16  and  C13_17 
ROOT
ATOM      1  C1  EAA d           7.972   4.637  27.911  0.00  0.00     0.092 A 
ATOM      2  C2  EAA d           8.317   3.272  27.886  0.00  0.00     0.090 A 
ATOM      3 CL1  EAA d           9.733   2.821  27.019  0.00  0.00    -0.080 Cl
ATOM      4  C3  EAA d           7.574   2.354  28.551  0.00  0.00     0.072 A 
ATOM      5 CL2  EAA d           8.021   0.673  28.476  0.00  0.00    -0.081 Cl
ATOM      6  C4  EAA d           6.425   2.715  29.260  0.00  0.00     0.038 A 
ATOM      7  C5  EAA d           6.083   4.071  29.269  0.00  0.00     0.020 A 
ATOM      8  C6  EAA d           6.830   5.004  28.604  0.00  0.00     0.039 A 
ENDROOT
BRANCH   6   9
ATOM      9  C7  EAA d           5.671   1.740  30.111  0.00  0.00     0.189 C 
ATOM     10  O1  EAA d           4.776   1.085  29.639  0.00  0.00    -0.287 OA
BRANCH   9  11
ATOM     11  C8  EAA d           6.038   1.543  31.537  0.00  0.00    -0.017 C 
ATOM     12  C11 EAA d           5.769   2.485  32.395  0.00  0.00     0.023 C 
BRANCH  11  13
ATOM     13  C9  EAA d           6.639   0.229  31.881  0.00  0.00     0.037 C 
ATOM     14  C10 EAA d           6.677  -0.177  33.278  0.00  0.00     0.010 C 
ENDBRANCH  11  13
ENDBRANCH   9  11
ENDBRANCH   6   9
BRANCH   1  15
ATOM     15  O2  EAA d           8.779   5.481  27.218  0.00  0.00    -0.339 OA
BRANCH  15  16
ATOM     16  C12 EAA d           8.697   6.860  27.504  0.00  0.00     0.288 C 
BRANCH  16  17
ATOM     17  C13 EAA d          10.050   7.396  27.792  0.00  0.00     0.198 C 
ATOM     18  O   EAA d          10.345   7.481  29.017  0.00  0.00    -0.646 OA
ATOM     19  OXT EAA d          10.846   7.706  26.861  0.00  0.00    -0.646 OA
ENDBRANCH  16  17
ENDBRANCH  15  16
ENDBRANCH   1  15
TORSDOF 6
ENDMDL
MODEL 6
REMARK VINA RESULT:      -5.9      1.410      2.203
REMARK  6 active torsions:
REMARK  status: ('A' for Active; 'I' for Inactive)
REMARK    1  A    between atoms: C1_1  and  O2_2 
REMARK    2  A    between atoms: O2_2  and  C12_16 
REMARK    3  A    between atoms: C4_7  and  C7_10 
REMARK    4  A    between atoms: C7_10  and  C8_12 
REMARK    5  A    between atoms: C8_12  and  C9_13 
REMARK    6  A    between atoms: C12_16  and  C13_17 
ROOT
ATOM      1  C1  EAA d           9.201   2.505  27.002  0.00  0.00     0.092 A 
ATOM      2  C2  EAA d           8.403   3.522  27.560  0.00  0.00     0.090 A 
ATOM      3 CL1  EAA d           8.611   5.123  26.964  0.00  0.00    -0.080 Cl
ATOM      4  C3  EAA d           7.479   3.239  28.512  0.00  0.00     0.072 A 
ATOM      5 CL2  EAA d           6.528   4.528  29.194  0.00  0.00    -0.081 Cl
ATOM      6  C4  EAA d           7.302   1.941  28.997  0.00  0.00     0.038 A 
ATOM      7  C5  EAA d           8.109   0.939  28.446  0.00  0.00     0.020 A 
ATOM      8  C6  EAA d           9.038   1.217  27.482  0.00  0.00     0.039 A 
ENDROOT
BRANCH   6   9
ATOM      9  C7  EAA d           6.198   1.585  29.945  0.00  0.00     0.189 C 
ATOM     10  O1  EAA d           6.294   1.849  31.118  0.00  0.00    -0.287 OA
BRANCH   9  11
ATOM     11  C8  EAA d           4.959   0.934  29.449  0.00  0.00    -0.017 C 
ATOM     12  C11 EAA d           4.300   0.140  30.245  0.00  0.00     0.023 C 
BRANCH  11  13
ATOM     13  C9  EAA d           4.534   1.301  28.075  0.00  0.00     0.037 C 
ATOM     14  C10 EAA d           3.577   2.384  27.905  0.00  0.00     0.010 C 
ENDBRANCH  11  13
ENDBRANCH   9  11
ENDBRANCH   6   9
BRANCH   1  15
ATOM     15  O2  EAA d          10.094   2.887  26.052  0.00  0.00    -0.339 OA
BRANCH  15  16
ATOM     16  C12 EAA d           9.699   2.806  24.700  0.00  0.00     0.288 C 
BRANCH  16  17
ATOM     17  C13 EAA d          10.404   1.683  24.036  0.00  0.00     0.198 C 
ATOM     18  O   EAA d          11.460   1.999  23.421  0.00  0.00    -0.646 OA
ATOM     19  OXT EAA d           9.977   0.497  24.122  0.00  0.00    -0.646 OA
ENDBRANCH  16  17
ENDBRANCH  15  16
ENDBRANCH   1  15
TORSDOF 6
ENDMDL
MODEL 7
REMARK VINA RESULT:      -5.8      2.638      6.680
REMARK  6 active torsions:
REMARK  status: ('A' for Active; 'I' for Inactive)
REMARK    1  A    between atoms: C1_1  and  O2_2 
REMARK    2  A    between atoms: O2_2  and  C12_16 
REMARK    3  A    between atoms: C4_7  and  C7_10 
REMARK    4  A    between atoms: C7_10  and  C8_12 
REMARK    5  A    between atoms: C8_12  and  C9_13 
REMARK    6  A    between atoms: C12_16  and  C13_17 
ROOT
ATOM      1  C1  EAA d           6.416   2.670  29.712  0.00  0.00     0.092 A 
ATOM      2  C2  EAA d           7.448   2.038  28.992  0.00  0.00     0.090 A 
ATOM      3 CL1  EAA d           7.670   0.348  29.228  0.00  0.00    -0.080 Cl
ATOM      4  C3  EAA d           8.216   2.736  28.118  0.00  0.00     0.072 A 
ATOM      5 CL2  EAA d           9.497   1.922  27.264  0.00  0.00    -0.081 Cl
ATOM      6  C4  EAA d           8.038   4.107  27.919  0.00  0.00     0.038 A 
ATOM      7  C5  EAA d           7.019   4.729  28.648  0.00  0.00     0.020 A 
ATOM      8  C6  EAA d           6.237   4.031  29.527  0.00  0.00     0.039 A 
ENDROOT
BRANCH   6   9
ATOM      9  C7  EAA d           8.782   4.864  26.862  0.00  0.00     0.189 C 
ATOM     10  O1  EAA d           8.393   4.859  25.721  0.00  0.00    -0.287 OA
BRANCH   9  11
ATOM     11  C8  EAA d           9.988   5.657  27.211  0.00  0.00    -0.017 C 
ATOM     12  C11 EAA d          11.159   5.091  27.142  0.00  0.00     0.023 C 
BRANCH  11  13
ATOM     13  C9  EAA d           9.754   7.082  27.560  0.00  0.00     0.037 C 
ATOM     14  C10 EAA d           9.720   7.460  28.965  0.00  0.00     0.010 C 
ENDBRANCH  11  13
ENDBRANCH   9  11
ENDBRANCH   6   9
BRANCH   1  15
ATOM     15  O2  EAA d           5.699   1.888  30.559  0.00  0.00    -0.339 OA
BRANCH  15  16
ATOM     16  C12 EAA d           5.938   2.017  31.943  0.00  0.00     0.288 C 
BRANCH  16  17
ATOM     17  C13 EAA d           6.070   0.675  32.559  0.00  0.00     0.198 C 
ATOM     18  O   EAA d           5.506  -0.264  31.930  0.00  0.00    -0.646 OA
ATOM     19  OXT EAA d           6.733   0.501  33.620  0.00  0.00    -0.646 OA
ENDBRANCH  16  17
ENDBRANCH  15  16
ENDBRANCH   1  15
TORSDOF 6
ENDMDL
MODEL 8
REMARK VINA RESULT:      -5.8      2.480      7.084
REMARK  6 active torsions:
REMARK  status: ('A' for Active; 'I' for Inactive)
REMARK    1  A    between atoms: C1_1  and  O2_2 
REMARK    2  A    between atoms: O2_2  and  C12_16 
REMARK    3  A    between atoms: C4_7  and  C7_10 
REMARK    4  A    between atoms: C7_10  and  C8_12 
REMARK    5  A    between atoms: C8_12  and  C9_13 
REMARK    6  A    between atoms: C12_16  and  C13_17 
ROOT
ATOM      1  C1  EAA d           6.955   3.951  28.640  0.00  0.00     0.092 A 
ATOM      2  C2  EAA d           7.686   2.816  28.237  0.00  0.00     0.090 A 
ATOM      3 CL1  EAA d           7.122   1.275  28.755  0.00  0.00    -0.080 Cl
ATOM      4  C3  EAA d           8.777   2.938  27.441  0.00  0.00     0.072 A 
ATOM      5 CL2  EAA d           9.667   1.513  26.984  0.00  0.00    -0.081 Cl
ATOM      6  C4  EAA d           9.237   4.186  27.014  0.00  0.00     0.038 A 
ATOM      7  C5  EAA d           8.513   5.308  27.430  0.00  0.00     0.020 A 
ATOM      8  C6  EAA d           7.408   5.193  28.228  0.00  0.00     0.039 A 
ENDROOT
BRANCH   6   9
ATOM      9  C7  EAA d          10.354   4.331  26.027  0.00  0.00     0.189 C 
ATOM     10  O1  EAA d          11.501   4.338  26.401  0.00  0.00    -0.287 OA
BRANCH   9  11
ATOM     11  C8  EAA d          10.067   4.435  24.573  0.00  0.00    -0.017 C 
ATOM     12  C11 EAA d          10.099   5.606  24.005  0.00  0.00     0.023 C 
BRANCH  11  13
ATOM     13  C9  EAA d           9.822   3.154  23.863  0.00  0.00     0.037 C 
ATOM     14  C10 EAA d          10.958   2.296  23.558  0.00  0.00     0.010 C 
ENDBRANCH  11  13
ENDBRANCH   9  11
ENDBRANCH   6   9
BRANCH   1  15
ATOM     15  O2  EAA d           5.875   3.728  29.432  0.00  0.00    -0.339 OA
BRANCH  15  16
ATOM     16  C12 EAA d           5.881   4.280  30.731  0.00  0.00     0.288 C 
BRANCH  16  17
ATOM     17  C13 EAA d           5.402   3.272  31.708  0.00  0.00     0.198 C 
ATOM     18  O   EAA d           4.911   2.223  31.204  0.00  0.00    -0.646 OA
ATOM     19  OXT EAA d           5.519   3.457  32.952  0.00  0.00    -0.646 OA
ENDBRANCH  16  17
ENDBRANCH  15  16
ENDBRANCH   1  15
TORSDOF 6
ENDMDL
MODEL 9
REMARK VINA RESULT:      -5.7      2.052      2.541
REMARK  6 active torsions:
REMARK  status: ('A' for Active; 'I' for Inactive)
REMARK    1  A    between atoms: C1_1  and  O2_2 
REMARK    2  A    between atoms: O2_2  and  C12_16 
REMARK    3  A    between atoms: C4_7  and  C7_10 
REMARK    4  A    between atoms: C7_10  and  C8_12 
REMARK    5  A    between atoms: C8_12  and  C9_13 
REMARK    6  A    between atoms: C12_16  and  C13_17 
ROOT
ATOM      1  C1  EAA d           8.662   4.322  27.480  0.00  0.00     0.092 A 
ATOM      2  C2  EAA d           8.572   2.923  27.621  0.00  0.00     0.090 A 
ATOM      3 CL1  EAA d           9.784   1.963  26.866  0.00  0.00    -0.080 Cl
ATOM      4  C3  EAA d           7.581   2.360  28.355  0.00  0.00     0.072 A 
ATOM      5 CL2  EAA d           7.492   0.626  28.487  0.00  0.00    -0.081 Cl
ATOM      6  C4  EAA d           6.597   3.135  28.974  0.00  0.00     0.038 A 
ATOM      7  C5  EAA d           6.686   4.521  28.817  0.00  0.00     0.020 A 
ATOM      8  C6  EAA d           7.686   5.097  28.082  0.00  0.00     0.039 A 
ENDROOT
BRANCH   6   9
ATOM      9  C7  EAA d           5.578   2.543  29.899  0.00  0.00     0.189 C 
ATOM     10  O1  EAA d           4.484   2.244  29.489  0.00  0.00    -0.287 OA
BRANCH   9  11
ATOM     11  C8  EAA d           5.911   2.286  31.323  0.00  0.00    -0.017 C 
ATOM     12  C11 EAA d           5.741   3.240  32.194  0.00  0.00     0.023 C 
BRANCH  11  13
ATOM     13  C9  EAA d           6.364   0.910  31.650  0.00  0.00     0.037 C 
ATOM     14  C10 EAA d           6.501   0.534  33.049  0.00  0.00     0.010 C 
ENDBRANCH  11  13
ENDBRANCH   9  11
ENDBRANCH   6   9
BRANCH   1  15
ATOM     15  O2  EAA d           9.691   4.791  26.729  0.00  0.00    -0.339 OA
BRANCH  15  16
ATOM     16  C12 EAA d           9.387   5.402  25.494  0.00  0.00     0.288 C 
BRANCH  16  17
ATOM     17  C13 EAA d          10.489   5.166  24.530  0.00  0.00     0.198 C 
ATOM     18  O   EAA d          10.701   6.106  23.714  0.00  0.00    -0.646 OA
ATOM     19  OXT EAA d          11.175   4.105  24.563  0.00  0.00    -0.646 OA
ENDBRANCH  16  17
ENDBRANCH  15  16
ENDBRANCH   1  15
TORSDOF 6
ENDMDL
MODEL 10
REMARK VINA RESULT:      -5.7      2.510      6.360
REMARK  6 active torsions:
REMARK  status: ('A' for Active; 'I' for Inactive)
REMARK    1  A    between atoms: C1_1  and  O2_2 
REMARK    2  A    between atoms: O2_2  and  C12_16 
REMARK    3  A    between atoms: C4_7  and  C7_10 
REMARK    4  A    between atoms: C7_10  and  C8_12 
REMARK    5  A    between atoms: C8_12  and  C9_13 
REMARK    6  A    between atoms: C12_16  and  C13_17 
ROOT
ATOM      1  C1  EAA d           6.983   1.036  30.216  0.00  0.00     0.092 A 
ATOM      2  C2  EAA d           6.540   2.370  30.312  0.00  0.00     0.090 A 
ATOM      3 CL1  EAA d           5.622   2.811  31.699  0.00  0.00    -0.080 Cl
ATOM      4  C3  EAA d           6.857   3.279  29.357  0.00  0.00     0.072 A 
ATOM      5 CL2  EAA d           6.271   4.912  29.500  0.00  0.00    -0.081 Cl
ATOM      6  C4  EAA d           7.606   2.927  28.231  0.00  0.00     0.038 A 
ATOM      7  C5  EAA d           8.030   1.598  28.138  0.00  0.00     0.020 A 
ATOM      8  C6  EAA d           7.718   0.677  29.100  0.00  0.00     0.039 A 
ENDROOT
BRANCH   6   9
ATOM      9  C7  EAA d           8.081   3.943  27.238  0.00  0.00     0.189 C 
ATOM     10  O1  EAA d           9.041   4.631  27.482  0.00  0.00    -0.287 OA
BRANCH   9  11
ATOM     11  C8  EAA d           7.397   4.094  25.928  0.00  0.00    -0.017 C 
ATOM     12  C11 EAA d           8.115   4.145  24.842  0.00  0.00     0.023 C 
BRANCH  11  13
ATOM     13  C9  EAA d           5.913   4.114  25.965  0.00  0.00     0.037 C 
ATOM     14  C10 EAA d           5.205   5.035  25.089  0.00  0.00     0.010 C 
ENDBRANCH  11  13
ENDBRANCH   9  11
ENDBRANCH   6   9
BRANCH   1  15
ATOM     15  O2  EAA d           6.618   0.202  31.224  0.00  0.00    -0.339 OA
BRANCH  15  16
ATOM     16  C12 EAA d           5.956  -0.997  30.885  0.00  0.00     0.288 C 
BRANCH  16  17
ATOM     17  C13 EAA d           6.360  -2.076  31.818  0.00  0.00     0.198 C 
ATOM     18  O   EAA d           6.195  -1.819  33.043  0.00  0.00    -0.646 OA
ATOM     19  OXT EAA d           6.803  -3.180  31.392  0.00  0.00    -0.646 OA
ENDBRANCH  16  17
ENDBRANCH  15  16
ENDBRANCH   1  15
TORSDOF 6
ENDMDL
