MODEL 1
REMARK VINA RESULT:      -6.4      0.000      0.000
REMARK  4 active torsions:
REMARK  status: ('A' for Active; 'I' for Inactive)
REMARK    1  A    between atoms: C4_4  and  C6_6 
REMARK    2  A    between atoms: C5_5  and  O8_8 
REMARK    3  A    between atoms: O8_8  and  C9_9 
REMARK    4  A    between atoms: C9_9  and  C10_10 
ROOT
ATOM      1  C1  MOL d          46.715  13.359   3.160  0.00  0.00     0.072 A 
ATOM      2  C2  MOL d          45.564  13.735   2.432  0.00  0.00     0.052 A 
ATOM      3  S3  MOL d          47.153  14.637   4.189  0.00  0.00    -0.091 SA
ATOM      4  C4  MOL d          45.892  15.683   3.717  0.00  0.00     0.116 A 
ATOM      5  C5  MOL d          45.088  15.042   2.734  0.00  0.00     0.111 A 
ATOM      6 BR19 MOL d          44.750  12.590   1.183  0.00  0.00    -0.048 Br
ENDROOT
BRANCH   5   7
ATOM      7  O8  MOL d          43.916  15.574   2.073  0.00  0.00    -0.338 OA
BRANCH   7   8
ATOM      8  C9  MOL d          44.180  16.748   1.275  0.00  0.00     0.288 C 
BRANCH   8   9
ATOM      9  C10 MOL d          44.097  16.432  -0.220  0.00  0.00     0.198 C 
ATOM     10  O13 MOL d          44.718  17.320  -1.013  0.00  0.00    -0.646 OA
ATOM     11  O15 MOL d          43.525  15.483  -0.657  0.00  0.00    -0.646 OA
ENDBRANCH   8   9
ENDBRANCH   7   8
ENDBRANCH   5   7
BRANCH   4  12
ATOM     12  C6  MOL d          45.750  16.962   4.266  0.00  0.00     0.219 C 
ATOM     13  O7  MOL d          44.632  17.139   4.995  0.00  0.00    -0.643 OA
ATOM     14  O14 MOL d          46.558  17.847   4.110  0.00  0.00    -0.643 OA
ENDBRANCH   4  12
TORSDOF 4
ENDMDL
MODEL 2
REMARK VINA RESULT:      -6.1      1.981      4.077
REMARK  4 active torsions:
REMARK  status: ('A' for Active; 'I' for Inactive)
REMARK    1  A    between atoms: C4_4  and  C6_6 
REMARK    2  A    between atoms: C5_5  and  O8_8 
REMARK    3  A    between atoms: O8_8  and  C9_9 
REMARK    4  A    between atoms: C9_9  and  C10_10 
ROOT
ATOM      1  C1  MOL d          45.210  12.830   0.241  0.00  0.00     0.072 A 
ATOM      2  C2  MOL d          45.494  13.166   1.584  0.00  0.00     0.052 A 
ATOM      3  S3  MOL d          44.497  14.171  -0.518  0.00  0.00    -0.091 SA
ATOM      4  C4  MOL d          44.534  15.189   0.849  0.00  0.00     0.116 A 
ATOM      5  C5  MOL d          45.120  14.491   1.942  0.00  0.00     0.111 A 
ATOM      6 BR19 MOL d          46.300  11.951   2.771  0.00  0.00    -0.048 Br
ENDROOT
BRANCH   5   7
ATOM      7  O8  MOL d          45.346  14.987   3.282  0.00  0.00    -0.338 OA
BRANCH   7   8
ATOM      8  C9  MOL d          46.504  15.841   3.400  0.00  0.00     0.288 C 
BRANCH   8   9
ATOM      9  C10 MOL d          46.235  17.013   4.346  0.00  0.00     0.198 C 
ATOM     10  O13 MOL d          47.278  17.839   4.521  0.00  0.00    -0.646 OA
ATOM     11  O15 MOL d          45.192  17.185   4.894  0.00  0.00    -0.646 OA
ENDBRANCH   8   9
ENDBRANCH   7   8
ENDBRANCH   5   7
BRANCH   4  12
ATOM     12  C6  MOL d          44.041  16.497   0.809  0.00  0.00     0.219 C 
ATOM     13  O7  MOL d          44.728  17.332   0.006  0.00  0.00    -0.643 OA
ATOM     14  O14 MOL d          43.076  16.864   1.437  0.00  0.00    -0.643 OA
ENDBRANCH   4  12
TORSDOF 4
ENDMDL
MODEL 3
REMARK VINA RESULT:      -5.6      3.058      5.002
REMARK  4 active torsions:
REMARK  status: ('A' for Active; 'I' for Inactive)
REMARK    1  A    between atoms: C4_4  and  C6_6 
REMARK    2  A    between atoms: C5_5  and  O8_8 
REMARK    3  A    between atoms: O8_8  and  C9_9 
REMARK    4  A    between atoms: C9_9  and  C10_10 
ROOT
ATOM      1  C1  MOL d          44.369  15.008   0.622  0.00  0.00     0.072 A 
ATOM      2  C2  MOL d          44.825  15.587   1.827  0.00  0.00     0.052 A 
ATOM      3  S3  MOL d          44.871  13.386   0.571  0.00  0.00    -0.091 SA
ATOM      4  C4  MOL d          45.678  13.404   2.072  0.00  0.00     0.116 A 
ATOM      5  C5  MOL d          45.564  14.696   2.656  0.00  0.00     0.111 A 
ATOM      6 BR19 MOL d          44.469  17.378   2.276  0.00  0.00    -0.048 Br
ENDROOT
BRANCH   5   7
ATOM      7  O8  MOL d          46.098  15.138   3.926  0.00  0.00    -0.338 OA
BRANCH   7   8
ATOM      8  C9  MOL d          47.420  15.711   3.835  0.00  0.00     0.288 C 
BRANCH   8   9
ATOM      9  C10 MOL d          47.620  16.813   4.878  0.00  0.00     0.198 C 
ATOM     10  O13 MOL d          46.510  17.147   5.555  0.00  0.00    -0.646 OA
ATOM     11  O15 MOL d          48.667  17.344   5.076  0.00  0.00    -0.646 OA
ENDBRANCH   8   9
ENDBRANCH   7   8
ENDBRANCH   5   7
BRANCH   4  12
ATOM     12  C6  MOL d          46.327  12.271   2.574  0.00  0.00     0.219 C 
ATOM     13  O7  MOL d          46.160  11.156   1.838  0.00  0.00    -0.643 OA
ATOM     14  O14 MOL d          46.989  12.277   3.585  0.00  0.00    -0.643 OA
ENDBRANCH   4  12
TORSDOF 4
ENDMDL
MODEL 4
REMARK VINA RESULT:      -5.3      2.501      3.409
REMARK  4 active torsions:
REMARK  status: ('A' for Active; 'I' for Inactive)
REMARK    1  A    between atoms: C4_4  and  C6_6 
REMARK    2  A    between atoms: C5_5  and  O8_8 
REMARK    3  A    between atoms: O8_8  and  C9_9 
REMARK    4  A    between atoms: C9_9  and  C10_10 
ROOT
ATOM      1  C1  MOL d          46.940  15.478   3.709  0.00  0.00     0.072 A 
ATOM      2  C2  MOL d          46.269  14.404   3.085  0.00  0.00     0.052 A 
ATOM      3  S3  MOL d          46.170  16.929   3.277  0.00  0.00    -0.091 SA
ATOM      4  C4  MOL d          44.982  16.210   2.288  0.00  0.00     0.116 A 
ATOM      5  C5  MOL d          45.163  14.800   2.281  0.00  0.00     0.111 A 
ATOM      6 BR19 MOL d          46.806  12.616   3.315  0.00  0.00    -0.048 Br
ENDROOT
BRANCH   5   7
ATOM      7  O8  MOL d          44.371  13.815   1.575  0.00  0.00    -0.338 OA
BRANCH   7   8
ATOM      8  C9  MOL d          44.802  13.585   0.217  0.00  0.00     0.288 C 
BRANCH   8   9
ATOM      9  C10 MOL d          45.134  12.109  -0.017  0.00  0.00     0.198 C 
ATOM     10  O13 MOL d          44.591  11.268   0.876  0.00  0.00    -0.646 OA
ATOM     11  O15 MOL d          45.823  11.728  -0.910  0.00  0.00    -0.646 OA
ENDBRANCH   8   9
ENDBRANCH   7   8
ENDBRANCH   5   7
BRANCH   4  12
ATOM     12  C6  MOL d          44.016  16.973   1.624  0.00  0.00     0.219 C 
ATOM     13  O7  MOL d          43.703  18.135   2.229  0.00  0.00    -0.643 OA
ATOM     14  O14 MOL d          43.496  16.631   0.588  0.00  0.00    -0.643 OA
ENDBRANCH   4  12
TORSDOF 4
ENDMDL
MODEL 5
REMARK VINA RESULT:      -5.1      2.236      3.476
REMARK  4 active torsions:
REMARK  status: ('A' for Active; 'I' for Inactive)
REMARK    1  A    between atoms: C4_4  and  C6_6 
REMARK    2  A    between atoms: C5_5  and  O8_8 
REMARK    3  A    between atoms: O8_8  and  C9_9 
REMARK    4  A    between atoms: C9_9  and  C10_10 
ROOT
ATOM      1  C1  MOL d          46.713  14.124   4.036  0.00  0.00     0.072 A 
ATOM      2  C2  MOL d          45.719  15.040   3.628  0.00  0.00     0.052 A 
ATOM      3  S3  MOL d          46.713  12.806   2.964  0.00  0.00    -0.091 SA
ATOM      4  C4  MOL d          45.447  13.381   1.978  0.00  0.00     0.116 A 
ATOM      5  C5  MOL d          44.997  14.637   2.470  0.00  0.00     0.111 A 
ATOM      6 BR19 MOL d          45.399  16.648   4.551  0.00  0.00    -0.048 Br
ENDROOT
BRANCH   5   7
ATOM      7  O8  MOL d          43.945  15.468   1.927  0.00  0.00    -0.338 OA
BRANCH   7   8
ATOM      8  C9  MOL d          44.428  16.616   1.196  0.00  0.00     0.288 C 
BRANCH   8   9
ATOM      9  C10 MOL d          44.066  16.522  -0.288  0.00  0.00     0.198 C 
ATOM     10  O13 MOL d          44.763  17.346  -1.085  0.00  0.00    -0.646 OA
ATOM     11  O15 MOL d          43.231  15.786  -0.712  0.00  0.00    -0.646 OA
ENDBRANCH   8   9
ENDBRANCH   7   8
ENDBRANCH   5   7
BRANCH   4  12
ATOM     12  C6  MOL d          44.988  12.658   0.872  0.00  0.00     0.219 C 
ATOM     13  O7  MOL d          44.556  11.414   1.154  0.00  0.00    -0.643 OA
ATOM     14  O14 MOL d          44.972  13.100  -0.252  0.00  0.00    -0.643 OA
ENDBRANCH   4  12
TORSDOF 4
ENDMDL
MODEL 6
REMARK VINA RESULT:      -4.8      2.484      4.159
REMARK  4 active torsions:
REMARK  status: ('A' for Active; 'I' for Inactive)
REMARK    1  A    between atoms: C4_4  and  C6_6 
REMARK    2  A    between atoms: C5_5  and  O8_8 
REMARK    3  A    between atoms: O8_8  and  C9_9 
REMARK    4  A    between atoms: C9_9  and  C10_10 
ROOT
ATOM      1  C1  MOL d          44.726  13.366  -1.607  0.00  0.00     0.072 A 
ATOM      2  C2  MOL d          44.792  12.993  -0.246  0.00  0.00     0.052 A 
ATOM      3  S3  MOL d          44.458  15.041  -1.701  0.00  0.00    -0.091 SA
ATOM      4  C4  MOL d          44.416  15.307  -0.017  0.00  0.00     0.116 A 
ATOM      5  C5  MOL d          44.619  14.075   0.662  0.00  0.00     0.111 A 
ATOM      6 BR19 MOL d          45.087  11.215   0.292  0.00  0.00    -0.048 Br
ENDROOT
BRANCH   5   7
ATOM      7  O8  MOL d          44.662  13.855   2.092  0.00  0.00    -0.338 OA
BRANCH   7   8
ATOM      8  C9  MOL d          45.916  14.228   2.702  0.00  0.00     0.288 C 
BRANCH   8   9
ATOM      9  C10 MOL d          45.771  15.507   3.530  0.00  0.00     0.198 C 
ATOM     10  O13 MOL d          44.548  15.701   4.047  0.00  0.00    -0.646 OA
ATOM     11  O15 MOL d          46.661  16.280   3.701  0.00  0.00    -0.646 OA
ENDBRANCH   8   9
ENDBRANCH   7   8
ENDBRANCH   5   7
BRANCH   4  12
ATOM     12  C6  MOL d          44.207  16.581   0.523  0.00  0.00     0.219 C 
ATOM     13  O7  MOL d          42.995  16.761   1.083  0.00  0.00    -0.643 OA
ATOM     14  O14 MOL d          45.036  17.459   0.497  0.00  0.00    -0.643 OA
ENDBRANCH   4  12
TORSDOF 4
ENDMDL
MODEL 7
REMARK VINA RESULT:      -4.7      2.093      2.873
REMARK  4 active torsions:
REMARK  status: ('A' for Active; 'I' for Inactive)
REMARK    1  A    between atoms: C4_4  and  C6_6 
REMARK    2  A    between atoms: C5_5  and  O8_8 
REMARK    3  A    between atoms: O8_8  and  C9_9 
REMARK    4  A    between atoms: C9_9  and  C10_10 
ROOT
ATOM      1  C1  MOL d          46.842  15.246   3.753  0.00  0.00     0.072 A 
ATOM      2  C2  MOL d          46.200  14.225   3.018  0.00  0.00     0.052 A 
ATOM      3  S3  MOL d          46.088  16.727   3.404  0.00  0.00    -0.091 SA
ATOM      4  C4  MOL d          44.945  16.089   2.312  0.00  0.00     0.116 A 
ATOM      5  C5  MOL d          45.129  14.683   2.201  0.00  0.00     0.111 A 
ATOM      6 BR19 MOL d          46.732  12.424   3.130  0.00  0.00    -0.048 Br
ENDROOT
BRANCH   5   7
ATOM      7  O8  MOL d          44.370  13.758   1.388  0.00  0.00    -0.338 OA
BRANCH   7   8
ATOM      8  C9  MOL d          45.162  13.066   0.399  0.00  0.00     0.288 C 
BRANCH   8   9
ATOM      9  C10 MOL d          44.556  13.211  -0.998  0.00  0.00     0.198 C 
ATOM     10  O13 MOL d          44.297  14.476  -1.365  0.00  0.00    -0.646 OA
ATOM     11  O15 MOL d          44.322  12.284  -1.709  0.00  0.00    -0.646 OA
ENDBRANCH   8   9
ENDBRANCH   7   8
ENDBRANCH   5   7
BRANCH   4  12
ATOM     12  C6  MOL d          44.006  16.903   1.668  0.00  0.00     0.219 C 
ATOM     13  O7  MOL d          43.838  18.117   2.227  0.00  0.00    -0.643 OA
ATOM     14  O14 MOL d          43.388  16.559   0.689  0.00  0.00    -0.643 OA
ENDBRANCH   4  12
TORSDOF 4
ENDMDL
MODEL 8
REMARK VINA RESULT:      -4.7      2.628      4.135
REMARK  4 active torsions:
REMARK  status: ('A' for Active; 'I' for Inactive)
REMARK    1  A    between atoms: C4_4  and  C6_6 
REMARK    2  A    between atoms: C5_5  and  O8_8 
REMARK    3  A    between atoms: O8_8  and  C9_9 
REMARK    4  A    between atoms: C9_9  and  C10_10 
ROOT
ATOM      1  C1  MOL d          46.814  13.058   3.296  0.00  0.00     0.072 A 
ATOM      2  C2  MOL d          45.835  13.981   2.864  0.00  0.00     0.052 A 
ATOM      3  S3  MOL d          46.750  11.687   2.296  0.00  0.00    -0.091 SA
ATOM      4  C4  MOL d          45.476  12.245   1.311  0.00  0.00     0.116 A 
ATOM      5  C5  MOL d          45.073  13.538   1.746  0.00  0.00     0.111 A 
ATOM      6 BR19 MOL d          45.584  15.643   3.707  0.00  0.00    -0.048 Br
ENDROOT
BRANCH   5   7
ATOM      7  O8  MOL d          44.032  14.370   1.184  0.00  0.00    -0.338 OA
BRANCH   7   8
ATOM      8  C9  MOL d          44.465  15.169   0.062  0.00  0.00     0.288 C 
BRANCH   8   9
ATOM      9  C10 MOL d          44.131  16.648   0.272  0.00  0.00     0.198 C 
ATOM     10  O13 MOL d          44.790  17.489  -0.539  0.00  0.00    -0.646 OA
ATOM     11  O15 MOL d          43.356  17.033   1.090  0.00  0.00    -0.646 OA
ENDBRANCH   8   9
ENDBRANCH   7   8
ENDBRANCH   5   7
BRANCH   4  12
ATOM     12  C6  MOL d          44.969  11.479   0.256  0.00  0.00     0.219 C 
ATOM     13  O7  MOL d          44.538  10.253   0.609  0.00  0.00    -0.643 OA
ATOM     14  O14 MOL d          44.914  11.872  -0.885  0.00  0.00    -0.643 OA
ENDBRANCH   4  12
TORSDOF 4
ENDMDL
MODEL 9
REMARK VINA RESULT:      -4.6      3.272      4.331
REMARK  4 active torsions:
REMARK  status: ('A' for Active; 'I' for Inactive)
REMARK    1  A    between atoms: C4_4  and  C6_6 
REMARK    2  A    between atoms: C5_5  and  O8_8 
REMARK    3  A    between atoms: O8_8  and  C9_9 
REMARK    4  A    between atoms: C9_9  and  C10_10 
ROOT
ATOM      1  C1  MOL d          44.173  15.354   1.862  0.00  0.00     0.072 A 
ATOM      2  C2  MOL d          45.027  14.259   1.606  0.00  0.00     0.052 A 
ATOM      3  S3  MOL d          44.587  16.030   3.364  0.00  0.00    -0.091 SA
ATOM      4  C4  MOL d          45.849  14.936   3.707  0.00  0.00     0.116 A 
ATOM      5  C5  MOL d          45.977  14.010   2.635  0.00  0.00     0.111 A 
ATOM      6 BR19 MOL d          44.901  13.237   0.032  0.00  0.00    -0.048 Br
ENDROOT
BRANCH   5   7
ATOM      7  O8  MOL d          46.925  12.923   2.521  0.00  0.00    -0.338 OA
BRANCH   7   8
ATOM      8  C9  MOL d          46.353  11.622   2.774  0.00  0.00     0.288 C 
BRANCH   8   9
ATOM      9  C10 MOL d          47.129  10.523   2.044  0.00  0.00     0.198 C 
ATOM     10  O13 MOL d          47.336  10.760   0.740  0.00  0.00    -0.646 OA
ATOM     11  O15 MOL d          47.515   9.531   2.578  0.00  0.00    -0.646 OA
ENDBRANCH   8   9
ENDBRANCH   7   8
ENDBRANCH   5   7
BRANCH   4  12
ATOM     12  C6  MOL d          46.592  15.014   4.890  0.00  0.00     0.219 C 
ATOM     13  O7  MOL d          46.026  14.406   5.950  0.00  0.00    -0.643 OA
ATOM     14  O14 MOL d          47.658  15.578   4.971  0.00  0.00    -0.643 OA
ENDBRANCH   4  12
TORSDOF 4
ENDMDL
MODEL 10
REMARK VINA RESULT:      -4.5      2.202      2.966
REMARK  4 active torsions:
REMARK  status: ('A' for Active; 'I' for Inactive)
REMARK    1  A    between atoms: C4_4  and  C6_6 
REMARK    2  A    between atoms: C5_5  and  O8_8 
REMARK    3  A    between atoms: O8_8  and  C9_9 
REMARK    4  A    between atoms: C9_9  and  C10_10 
ROOT
ATOM      1  C1  MOL d          44.846  13.577   0.859  0.00  0.00     0.072 A 
ATOM      2  C2  MOL d          44.468  14.423  -0.207  0.00  0.00     0.052 A 
ATOM      3  S3  MOL d          44.953  14.503   2.279  0.00  0.00    -0.091 SA
ATOM      4  C4  MOL d          44.528  15.986   1.554  0.00  0.00     0.116 A 
ATOM      5  C5  MOL d          44.285  15.783   0.168  0.00  0.00     0.111 A 
ATOM      6 BR19 MOL d          44.231  13.782  -1.959  0.00  0.00    -0.048 Br
ENDROOT
BRANCH   5   7
ATOM      7  O8  MOL d          43.895  16.775  -0.811  0.00  0.00    -0.338 OA
BRANCH   7   8
ATOM      8  C9  MOL d          45.009  17.391  -1.492  0.00  0.00     0.288 C 
BRANCH   8   9
ATOM      9  C10 MOL d          44.607  17.873  -2.888  0.00  0.00     0.198 C 
ATOM     10  O13 MOL d          44.255  19.166  -2.952  0.00  0.00    -0.646 OA
ATOM     11  O15 MOL d          44.595  17.165  -3.846  0.00  0.00    -0.646 OA
ENDBRANCH   8   9
ENDBRANCH   7   8
ENDBRANCH   5   7
BRANCH   4  12
ATOM     12  C6  MOL d          44.456  17.173   2.292  0.00  0.00     0.219 C 
ATOM     13  O7  MOL d          45.358  17.272   3.287  0.00  0.00    -0.643 OA
ATOM     14  O14 MOL d          43.656  18.049   2.065  0.00  0.00    -0.643 OA
ENDBRANCH   4  12
TORSDOF 4
ENDMDL
