MODEL 1
REMARK VINA RESULT:      -9.0      0.000      0.000
REMARK  2 active torsions:
REMARK  status: ('A' for Active; 'I' for Inactive)
REMARK    1  A    between atoms: C3_3  and  O3_20 
REMARK    2  A    between atoms: C5_5  and  O4_21 
ROOT
ATOM      1  C1  M1S d          55.509  75.764  -5.721  0.00  0.00     0.296 C 
ATOM      2  C2  M1S d          55.577  76.550  -4.445  0.00  0.00     0.081 A 
ATOM      3  C3  M1S d          54.670  77.611  -4.268  0.00  0.00     0.085 A 
ATOM      4  C4  M1S d          54.694  78.410  -3.134  0.00  0.00     0.076 A 
ATOM      5  C5  M1S d          55.667  78.124  -2.173  0.00  0.00     0.090 A 
ATOM      6  C6  M1S d          56.530  77.081  -2.368  0.00  0.00     0.075 A 
ATOM      7  C7  M1S d          56.543  76.263  -3.486  0.00  0.00    -0.008 A 
ATOM      8  C8  M1S d          57.556  75.115  -3.602  0.00  0.00     0.119 C 
ATOM      9  C9  M1S d          58.835  75.456  -4.308  0.00  0.00     0.131 C 
ATOM     10  C10 M1S d          59.294  76.875  -4.489  0.00  0.00     0.078 C 
ATOM     11  C11 M1S d          60.636  76.921  -5.228  0.00  0.00     0.007 C 
ATOM     12  C12 M1S d          61.052  78.348  -5.549  0.00  0.00     0.001 C 
ATOM     13  C13 M1S d          60.073  79.053  -6.486  0.00  0.00     0.004 C 
ATOM     14  C14 M1S d          60.062  78.393  -7.864  0.00  0.00     0.027 C 
ATOM     15  C15 M1S d          58.721  77.737  -8.110  0.00  0.00    -0.031 C 
ATOM     16  C16 M1S d          58.647  76.425  -8.321  0.00  0.00    -0.029 C 
ATOM     17  C17 M1S d          57.312  75.765  -8.584  0.00  0.00     0.053 C 
ATOM     18  C18 M1S d          56.854  74.788  -7.506  0.00  0.00     0.183 C 
ATOM     19  O2  M1S d          54.494  75.453  -6.307  0.00  0.00    -0.259 OA
ATOM     20 CL1  M1S d          57.675  76.736  -1.063  0.00  0.00    -0.081 Cl
ATOM     21  O5  M1S d          59.509  74.493  -4.686  0.00  0.00    -0.298 OA
ATOM     22  O1  M1S d          56.793  75.504  -6.244  0.00  0.00    -0.317 OA
ENDROOT
BRANCH   3  23
ATOM     23  O3  M1S d          53.696  77.861  -5.219  0.00  0.00    -0.360 OA
ATOM     24  H20 M1S d          53.554  77.080  -5.740  0.00  0.00     0.217 HD
ENDBRANCH   3  23
BRANCH   5  25
ATOM     25  O4  M1S d          55.772  78.909  -1.051  0.00  0.00    -0.359 OA
ATOM     26  H21 M1S d          55.591  78.384  -0.280  0.00  0.00     0.217 HD
ENDBRANCH   5  25
TORSDOF 2
ENDMDL
MODEL 2
REMARK VINA RESULT:      -7.0      2.747      5.356
REMARK  2 active torsions:
REMARK  status: ('A' for Active; 'I' for Inactive)
REMARK    1  A    between atoms: C3_3  and  O3_20 
REMARK    2  A    between atoms: C5_5  and  O4_21 
ROOT
ATOM      1  C1  M1S d          61.169  75.497  -6.846  0.00  0.00     0.296 C 
ATOM      2  C2  M1S d          61.262  75.348  -5.355  0.00  0.00     0.081 A 
ATOM      3  C3  M1S d          61.506  74.068  -4.828  0.00  0.00     0.085 A 
ATOM      4  C4  M1S d          61.568  73.841  -3.460  0.00  0.00     0.076 A 
ATOM      5  C5  M1S d          61.367  74.940  -2.622  0.00  0.00     0.090 A 
ATOM      6  C6  M1S d          61.141  76.176  -3.163  0.00  0.00     0.075 A 
ATOM      7  C7  M1S d          61.067  76.445  -4.520  0.00  0.00    -0.008 A 
ATOM      8  C8  M1S d          60.812  77.873  -5.021  0.00  0.00     0.119 C 
ATOM      9  C9  M1S d          59.372  78.222  -5.262  0.00  0.00     0.131 C 
ATOM     10  C10 M1S d          58.247  77.433  -4.655  0.00  0.00     0.078 C 
ATOM     11  C11 M1S d          56.891  78.023  -5.059  0.00  0.00     0.007 C 
ATOM     12  C12 M1S d          55.736  77.161  -4.575  0.00  0.00     0.001 C 
ATOM     13  C13 M1S d          55.745  75.762  -5.189  0.00  0.00     0.004 C 
ATOM     14  C14 M1S d          55.503  75.824  -6.696  0.00  0.00     0.027 C 
ATOM     15  C15 M1S d          56.746  75.384  -7.437  0.00  0.00    -0.031 C 
ATOM     16  C16 M1S d          57.362  76.222  -8.269  0.00  0.00    -0.029 C 
ATOM     17  C17 M1S d          58.596  75.783  -9.024  0.00  0.00     0.053 C 
ATOM     18  C18 M1S d          59.877  76.518  -8.645  0.00  0.00     0.183 C 
ATOM     19  O2  M1S d          61.852  74.912  -7.658  0.00  0.00    -0.259 OA
ATOM     20 CL1  M1S d          60.983  77.528  -2.031  0.00  0.00    -0.081 Cl
ATOM     21  O5  M1S d          59.175  79.226  -5.950  0.00  0.00    -0.298 OA
ATOM     22  O1  M1S d          60.099  76.336  -7.221  0.00  0.00    -0.317 OA
ENDROOT
BRANCH   3  23
ATOM     23  O3  M1S d          61.728  72.996  -5.675  0.00  0.00    -0.360 OA
ATOM     24  H20 M1S d          61.397  72.201  -5.273  0.00  0.00     0.217 HD
ENDBRANCH   3  23
BRANCH   5  25
ATOM     25  O4  M1S d          61.368  74.771  -1.259  0.00  0.00    -0.359 OA
ATOM     26  H21 M1S d          62.220  75.008  -0.912  0.00  0.00     0.217 HD
ENDBRANCH   5  25
TORSDOF 2
ENDMDL
MODEL 3
REMARK VINA RESULT:      -6.9      4.693      7.546
REMARK  2 active torsions:
REMARK  status: ('A' for Active; 'I' for Inactive)
REMARK    1  A    between atoms: C3_3  and  O3_20 
REMARK    2  A    between atoms: C5_5  and  O4_21 
ROOT
ATOM      1  C1  M1S d          64.218  75.959  -5.323  0.00  0.00     0.296 C 
ATOM      2  C2  M1S d          63.502  77.276  -5.256  0.00  0.00     0.081 A 
ATOM      3  C3  M1S d          64.270  78.444  -5.109  0.00  0.00     0.085 A 
ATOM      4  C4  M1S d          63.682  79.697  -5.000  0.00  0.00     0.076 A 
ATOM      5  C5  M1S d          62.286  79.750  -5.032  0.00  0.00     0.090 A 
ATOM      6  C6  M1S d          61.565  78.598  -5.185  0.00  0.00     0.075 A 
ATOM      7  C7  M1S d          62.112  77.329  -5.293  0.00  0.00    -0.008 A 
ATOM      8  C8  M1S d          61.208  76.101  -5.465  0.00  0.00     0.119 C 
ATOM      9  C9  M1S d          60.815  75.408  -4.193  0.00  0.00     0.131 C 
ATOM     10  C10 M1S d          60.905  76.085  -2.855  0.00  0.00     0.078 C 
ATOM     11  C11 M1S d          60.426  75.148  -1.740  0.00  0.00     0.007 C 
ATOM     12  C12 M1S d          60.640  75.757  -0.363  0.00  0.00     0.001 C 
ATOM     13  C13 M1S d          62.115  76.006  -0.050  0.00  0.00     0.004 C 
ATOM     14  C14 M1S d          62.883  74.689   0.047  0.00  0.00     0.027 C 
ATOM     15  C15 M1S d          63.876  74.587  -1.090  0.00  0.00    -0.031 C 
ATOM     16  C16 M1S d          63.787  73.591  -1.969  0.00  0.00    -0.029 C 
ATOM     17  C17 M1S d          64.785  73.474  -3.098  0.00  0.00     0.053 C 
ATOM     18  C18 M1S d          64.202  73.665  -4.494  0.00  0.00     0.183 C 
ATOM     19  O2  M1S d          65.271  75.755  -5.889  0.00  0.00    -0.259 OA
ATOM     20 CL1  M1S d          59.807  78.765  -5.302  0.00  0.00    -0.081 Cl
ATOM     21  O5  M1S d          60.368  74.266  -4.324  0.00  0.00    -0.298 OA
ATOM     22  O1  M1S d          63.573  74.973  -4.546  0.00  0.00    -0.317 OA
ENDROOT
BRANCH   3  23
ATOM     23  O3  M1S d          65.653  78.374  -5.106  0.00  0.00    -0.360 OA
ATOM     24  H20 M1S d          65.927  77.559  -4.702  0.00  0.00     0.217 HD
ENDBRANCH   3  23
BRANCH   5  25
ATOM     25  O4  M1S d          61.644  80.954  -4.881  0.00  0.00    -0.359 OA
ATOM     26  H21 M1S d          60.796  80.811  -4.478  0.00  0.00     0.217 HD
ENDBRANCH   5  25
TORSDOF 2
ENDMDL
MODEL 4
REMARK VINA RESULT:      -6.9      2.519      5.298
REMARK  2 active torsions:
REMARK  status: ('A' for Active; 'I' for Inactive)
REMARK    1  A    between atoms: C3_3  and  O3_20 
REMARK    2  A    between atoms: C5_5  and  O4_21 
ROOT
ATOM      1  C1  M1S d          55.684  76.881  -5.701  0.00  0.00     0.296 C 
ATOM      2  C2  M1S d          56.408  76.114  -6.769  0.00  0.00     0.081 A 
ATOM      3  C3  M1S d          55.892  74.865  -7.157  0.00  0.00     0.085 A 
ATOM      4  C4  M1S d          56.524  74.077  -8.109  0.00  0.00     0.076 A 
ATOM      5  C5  M1S d          57.707  74.574  -8.663  0.00  0.00     0.090 A 
ATOM      6  C6  M1S d          58.180  75.796  -8.273  0.00  0.00     0.075 A 
ATOM      7  C7  M1S d          57.583  76.611  -7.324  0.00  0.00    -0.008 A 
ATOM      8  C8  M1S d          58.199  77.970  -6.962  0.00  0.00     0.119 C 
ATOM      9  C9  M1S d          59.147  77.956  -5.799  0.00  0.00     0.131 C 
ATOM     10  C10 M1S d          59.794  76.691  -5.311  0.00  0.00     0.078 C 
ATOM     11  C11 M1S d          60.722  76.980  -4.125  0.00  0.00     0.007 C 
ATOM     12  C12 M1S d          61.278  75.699  -3.522  0.00  0.00     0.001 C 
ATOM     13  C13 M1S d          60.189  74.794  -2.948  0.00  0.00     0.004 C 
ATOM     14  C14 M1S d          59.504  75.453  -1.752  0.00  0.00     0.027 C 
ATOM     15  C15 M1S d          58.066  75.772  -2.093  0.00  0.00    -0.031 C 
ATOM     16  C16 M1S d          57.635  77.031  -2.066  0.00  0.00    -0.029 C 
ATOM     17  C17 M1S d          56.194  77.355  -2.390  0.00  0.00     0.053 C 
ATOM     18  C18 M1S d          55.990  78.178  -3.658  0.00  0.00     0.183 C 
ATOM     19  O2  M1S d          54.480  76.948  -5.572  0.00  0.00    -0.259 OA
ATOM     20 CL1  M1S d          59.637  76.386  -9.087  0.00  0.00    -0.081 Cl
ATOM     21  O5  M1S d          59.397  79.057  -5.303  0.00  0.00    -0.298 OA
ATOM     22  O1  M1S d          56.577  77.449  -4.769  0.00  0.00    -0.317 OA
ENDROOT
BRANCH   3  23
ATOM     23  O3  M1S d          54.705  74.402  -6.616  0.00  0.00    -0.360 OA
ATOM     24  H20 M1S d          54.583  73.491  -6.854  0.00  0.00     0.217 HD
ENDBRANCH   3  23
BRANCH   5  25
ATOM     25  O4  M1S d          58.404  73.820  -9.575  0.00  0.00    -0.359 OA
ATOM     26  H21 M1S d          59.041  73.282  -9.119  0.00  0.00     0.217 HD
ENDBRANCH   5  25
TORSDOF 2
ENDMDL
MODEL 5
REMARK VINA RESULT:      -6.9      2.660      6.072
REMARK  2 active torsions:
REMARK  status: ('A' for Active; 'I' for Inactive)
REMARK    1  A    between atoms: C3_3  and  O3_20 
REMARK    2  A    between atoms: C5_5  and  O4_21 
ROOT
ATOM      1  C1  M1S d          60.327  76.899  -3.393  0.00  0.00     0.296 C 
ATOM      2  C2  M1S d          60.411  77.416  -4.799  0.00  0.00     0.081 A 
ATOM      3  C3  M1S d          60.980  78.685  -5.008  0.00  0.00     0.085 A 
ATOM      4  C4  M1S d          61.060  79.250  -6.273  0.00  0.00     0.076 A 
ATOM      5  C5  M1S d          60.539  78.508  -7.336  0.00  0.00     0.090 A 
ATOM      6  C6  M1S d          60.000  77.274  -7.104  0.00  0.00     0.075 A 
ATOM      7  C7  M1S d          59.897  76.675  -5.859  0.00  0.00    -0.008 A 
ATOM      8  C8  M1S d          59.275  75.279  -5.711  0.00  0.00     0.119 C 
ATOM      9  C9  M1S d          57.803  75.260  -5.419  0.00  0.00     0.131 C 
ATOM     10  C10 M1S d          56.920  76.445  -5.688  0.00  0.00     0.078 C 
ATOM     11  C11 M1S d          55.467  76.135  -5.309  0.00  0.00     0.007 C 
ATOM     12  C12 M1S d          54.579  77.362  -5.438  0.00  0.00     0.001 C 
ATOM     13  C13 M1S d          54.990  78.492  -4.495  0.00  0.00     0.004 C 
ATOM     14  C14 M1S d          54.786  78.087  -3.036  0.00  0.00     0.027 C 
ATOM     15  C15 M1S d          56.125  77.976  -2.340  0.00  0.00    -0.031 C 
ATOM     16  C16 M1S d          56.513  76.816  -1.815  0.00  0.00    -0.029 C 
ATOM     17  C17 M1S d          57.842  76.703  -1.105  0.00  0.00     0.053 C 
ATOM     18  C18 M1S d          58.861  75.795  -1.787  0.00  0.00     0.183 C 
ATOM     19  O2  M1S d          61.169  77.047  -2.533  0.00  0.00    -0.259 OA
ATOM     20 CL1  M1S d          59.442  76.366  -8.518  0.00  0.00    -0.081 Cl
ATOM     21  O5  M1S d          57.359  74.192  -4.990  0.00  0.00    -0.298 OA
ATOM     22  O1  M1S d          59.079  76.293  -3.133  0.00  0.00    -0.317 OA
ENDROOT
BRANCH   3  23
ATOM     23  O3  M1S d          61.514  79.393  -3.946  0.00  0.00    -0.360 OA
ATOM     24  H20 M1S d          62.099  80.065  -4.276  0.00  0.00     0.217 HD
ENDBRANCH   3  23
BRANCH   5  25
ATOM     25  O4  M1S d          60.545  79.034  -8.605  0.00  0.00    -0.359 OA
ATOM     26  H21 M1S d          61.429  79.296  -8.834  0.00  0.00     0.217 HD
ENDBRANCH   5  25
TORSDOF 2
ENDMDL
MODEL 6
REMARK VINA RESULT:      -6.7      3.439      6.268
REMARK  2 active torsions:
REMARK  status: ('A' for Active; 'I' for Inactive)
REMARK    1  A    between atoms: C3_3  and  O3_20 
REMARK    2  A    between atoms: C5_5  and  O4_21 
ROOT
ATOM      1  C1  M1S d          61.011  77.267  -1.729  0.00  0.00     0.296 C 
ATOM      2  C2  M1S d          61.855  77.980  -2.744  0.00  0.00     0.081 A 
ATOM      3  C3  M1S d          62.169  79.331  -2.518  0.00  0.00     0.085 A 
ATOM      4  C4  M1S d          62.912  80.071  -3.427  0.00  0.00     0.076 A 
ATOM      5  C5  M1S d          63.331  79.418  -4.589  0.00  0.00     0.090 A 
ATOM      6  C6  M1S d          63.019  78.100  -4.778  0.00  0.00     0.075 A 
ATOM      7  C7  M1S d          62.277  77.327  -3.899  0.00  0.00    -0.008 A 
ATOM      8  C8  M1S d          61.987  75.852  -4.209  0.00  0.00     0.119 C 
ATOM      9  C9  M1S d          60.697  75.589  -4.930  0.00  0.00     0.131 C 
ATOM     10  C10 M1S d          59.969  76.665  -5.683  0.00  0.00     0.078 C 
ATOM     11  C11 M1S d          58.696  76.108  -6.330  0.00  0.00     0.007 C 
ATOM     12  C12 M1S d          57.868  77.206  -6.978  0.00  0.00     0.001 C 
ATOM     13  C13 M1S d          57.366  78.241  -5.972  0.00  0.00     0.004 C 
ATOM     14  C14 M1S d          56.377  77.615  -4.991  0.00  0.00     0.027 C 
ATOM     15  C15 M1S d          56.972  77.596  -3.600  0.00  0.00    -0.031 C 
ATOM     16  C16 M1S d          57.161  76.440  -2.968  0.00  0.00    -0.029 C 
ATOM     17  C17 M1S d          57.740  76.415  -1.572  0.00  0.00     0.053 C 
ATOM     18  C18 M1S d          59.113  75.759  -1.457  0.00  0.00     0.183 C 
ATOM     19  O2  M1S d          61.078  77.410  -0.527  0.00  0.00    -0.259 OA
ATOM     20 CL1  M1S d          63.661  77.328  -6.236  0.00  0.00    -0.081 Cl
ATOM     21  O5  M1S d          60.301  74.420  -4.904  0.00  0.00    -0.298 OA
ATOM     22  O1  M1S d          60.025  76.464  -2.341  0.00  0.00    -0.317 OA
ENDROOT
BRANCH   3  23
ATOM     23  O3  M1S d          61.768  79.954  -1.348  0.00  0.00    -0.360 OA
ATOM     24  H20 M1S d          62.528  80.303  -0.899  0.00  0.00     0.217 HD
ENDBRANCH   3  23
BRANCH   5  25
ATOM     25  O4  M1S d          64.028  80.109  -5.549  0.00  0.00    -0.359 OA
ATOM     26  H21 M1S d          64.154  81.007  -5.263  0.00  0.00     0.217 HD
ENDBRANCH   5  25
TORSDOF 2
ENDMDL
MODEL 7
REMARK VINA RESULT:      -6.7      3.095      5.312
REMARK  2 active torsions:
REMARK  status: ('A' for Active; 'I' for Inactive)
REMARK    1  A    between atoms: C3_3  and  O3_20 
REMARK    2  A    between atoms: C5_5  and  O4_21 
ROOT
ATOM      1  C1  M1S d          58.786  77.128  -2.601  0.00  0.00     0.296 C 
ATOM      2  C2  M1S d          58.070  76.899  -3.900  0.00  0.00     0.081 A 
ATOM      3  C3  M1S d          56.937  76.067  -3.898  0.00  0.00     0.085 A 
ATOM      4  C4  M1S d          56.242  75.775  -5.063  0.00  0.00     0.076 A 
ATOM      5  C5  M1S d          56.723  76.336  -6.249  0.00  0.00     0.090 A 
ATOM      6  C6  M1S d          57.823  77.148  -6.220  0.00  0.00     0.075 A 
ATOM      7  C7  M1S d          58.546  77.462  -5.080  0.00  0.00    -0.008 A 
ATOM      8  C8  M1S d          59.767  78.390  -5.160  0.00  0.00     0.119 C 
ATOM      9  C9  M1S d          61.087  77.701  -5.347  0.00  0.00     0.131 C 
ATOM     10  C10 M1S d          61.187  76.293  -5.860  0.00  0.00     0.078 C 
ATOM     11  C11 M1S d          62.653  75.857  -5.963  0.00  0.00     0.007 C 
ATOM     12  C12 M1S d          62.777  74.390  -6.345  0.00  0.00     0.001 C 
ATOM     13  C13 M1S d          62.170  73.454  -5.300  0.00  0.00     0.004 C 
ATOM     14  C14 M1S d          62.947  73.522  -3.987  0.00  0.00     0.027 C 
ATOM     15  C15 M1S d          62.081  74.133  -2.907  0.00  0.00    -0.031 C 
ATOM     16  C16 M1S d          62.456  75.260  -2.306  0.00  0.00    -0.029 C 
ATOM     17  C17 M1S d          61.603  75.867  -1.215  0.00  0.00     0.053 C 
ATOM     18  C18 M1S d          60.988  77.221  -1.558  0.00  0.00     0.183 C 
ATOM     19  O2  M1S d          58.259  77.264  -1.518  0.00  0.00    -0.259 OA
ATOM     20 CL1  M1S d          58.313  77.885  -7.753  0.00  0.00    -0.081 Cl
ATOM     21  O5  M1S d          62.084  78.384  -5.098  0.00  0.00    -0.298 OA
ATOM     22  O1  M1S d          60.187  77.062  -2.758  0.00  0.00    -0.317 OA
ENDROOT
BRANCH   3  23
ATOM     23  O3  M1S d          56.460  75.542  -2.709  0.00  0.00    -0.360 OA
ATOM     24  H20 M1S d          55.967  74.750  -2.888  0.00  0.00     0.217 HD
ENDBRANCH   3  23
BRANCH   5  25
ATOM     25  O4  M1S d          56.108  76.046  -7.442  0.00  0.00    -0.359 OA
ATOM     26  H21 M1S d          56.042  76.837  -7.964  0.00  0.00     0.217 HD
ENDBRANCH   5  25
TORSDOF 2
ENDMDL
MODEL 8
REMARK VINA RESULT:      -6.7      2.620      5.619
REMARK  2 active torsions:
REMARK  status: ('A' for Active; 'I' for Inactive)
REMARK    1  A    between atoms: C3_3  and  O3_20 
REMARK    2  A    between atoms: C5_5  and  O4_21 
ROOT
ATOM      1  C1  M1S d          56.047  75.794  -7.115  0.00  0.00     0.296 C 
ATOM      2  C2  M1S d          57.255  75.214  -7.791  0.00  0.00     0.081 A 
ATOM      3  C3  M1S d          57.237  73.850  -8.130  0.00  0.00     0.085 A 
ATOM      4  C4  M1S d          58.329  73.230  -8.722  0.00  0.00     0.076 A 
ATOM      5  C5  M1S d          59.458  74.018  -8.958  0.00  0.00     0.090 A 
ATOM      6  C6  M1S d          59.444  75.345  -8.625  0.00  0.00     0.075 A 
ATOM      7  C7  M1S d          58.378  76.001  -8.031  0.00  0.00    -0.008 A 
ATOM      8  C8  M1S d          58.467  77.497  -7.701  0.00  0.00     0.119 C 
ATOM      9  C9  M1S d          58.946  77.823  -6.317  0.00  0.00     0.131 C 
ATOM     10  C10 M1S d          59.698  76.830  -5.478  0.00  0.00     0.078 C 
ATOM     11  C11 M1S d          60.072  77.439  -4.122  0.00  0.00     0.007 C 
ATOM     12  C12 M1S d          60.708  76.411  -3.200  0.00  0.00     0.001 C 
ATOM     13  C13 M1S d          59.763  75.260  -2.856  0.00  0.00     0.004 C 
ATOM     14  C14 M1S d          58.575  75.755  -2.032  0.00  0.00     0.027 C 
ATOM     15  C15 M1S d          57.300  75.623  -2.835  0.00  0.00    -0.031 C 
ATOM     16  C16 M1S d          56.575  76.702  -3.123  0.00  0.00    -0.029 C 
ATOM     17  C17 M1S d          55.292  76.575  -3.911  0.00  0.00     0.053 C 
ATOM     18  C18 M1S d          55.314  77.232  -5.287  0.00  0.00     0.183 C 
ATOM     19  O2  M1S d          54.894  75.515  -7.367  0.00  0.00    -0.259 OA
ATOM     20 CL1  M1S d          60.884  76.288  -9.037  0.00  0.00    -0.081 Cl
ATOM     21  O5  M1S d          58.725  78.975  -5.934  0.00  0.00    -0.298 OA
ATOM     22  O1  M1S d          56.403  76.647  -6.050  0.00  0.00    -0.317 OA
ENDROOT
BRANCH   3  23
ATOM     23  O3  M1S d          56.100  73.092  -7.912  0.00  0.00    -0.360 OA
ATOM     24  H20 M1S d          56.339  72.281  -7.479  0.00  0.00     0.217 HD
ENDBRANCH   3  23
BRANCH   5  25
ATOM     25  O4  M1S d          60.588  73.452  -9.497  0.00  0.00    -0.359 OA
ATOM     26  H21 M1S d          60.552  73.515 -10.444  0.00  0.00     0.217 HD
ENDBRANCH   5  25
TORSDOF 2
ENDMDL
MODEL 9
REMARK VINA RESULT:      -6.6      2.779      5.206
REMARK  2 active torsions:
REMARK  status: ('A' for Active; 'I' for Inactive)
REMARK    1  A    between atoms: C3_3  and  O3_20 
REMARK    2  A    between atoms: C5_5  and  O4_21 
ROOT
ATOM      1  C1  M1S d          56.928  77.150  -4.245  0.00  0.00     0.296 C 
ATOM      2  C2  M1S d          57.137  76.929  -5.715  0.00  0.00     0.081 A 
ATOM      3  C3  M1S d          56.337  75.972  -6.364  0.00  0.00     0.085 A 
ATOM      4  C4  M1S d          56.494  75.682  -7.712  0.00  0.00     0.076 A 
ATOM      5  C5  M1S d          57.493  76.376  -8.401  0.00  0.00     0.090 A 
ATOM      6  C6  M1S d          58.250  77.307  -7.745  0.00  0.00     0.075 A 
ATOM      7  C7  M1S d          58.128  77.623  -6.402  0.00  0.00    -0.008 A 
ATOM      8  C8  M1S d          59.030  78.691  -5.765  0.00  0.00     0.119 C 
ATOM      9  C9  M1S d          60.292  78.175  -5.138  0.00  0.00     0.131 C 
ATOM     10  C10 M1S d          60.860  76.827  -5.479  0.00  0.00     0.078 C 
ATOM     11  C11 M1S d          62.156  76.572  -4.701  0.00  0.00     0.007 C 
ATOM     12  C12 M1S d          62.675  75.160  -4.920  0.00  0.00     0.001 C 
ATOM     13  C13 M1S d          61.708  74.090  -4.415  0.00  0.00     0.004 C 
ATOM     14  C14 M1S d          61.561  74.158  -2.896  0.00  0.00     0.027 C 
ATOM     15  C15 M1S d          60.157  74.588  -2.533  0.00  0.00    -0.031 C 
ATOM     16  C16 M1S d          59.958  75.707  -1.840  0.00  0.00    -0.029 C 
ATOM     17  C17 M1S d          58.558  76.134  -1.460  0.00  0.00     0.053 C 
ATOM     18  C18 M1S d          58.080  77.426  -2.113  0.00  0.00     0.183 C 
ATOM     19  O2  M1S d          55.858  77.148  -3.675  0.00  0.00    -0.259 OA
ATOM     20 CL1  M1S d          59.434  78.199  -8.712  0.00  0.00    -0.081 Cl
ATOM     21  O5  M1S d          60.857  78.950  -4.362  0.00  0.00    -0.298 OA
ATOM     22  O1  M1S d          58.153  77.258  -3.554  0.00  0.00    -0.317 OA
ENDROOT
BRANCH   3  23
ATOM     23  O3  M1S d          55.335  75.315  -5.671  0.00  0.00    -0.360 OA
ATOM     24  H20 M1S d          55.076  74.537  -6.151  0.00  0.00     0.217 HD
ENDBRANCH   3  23
BRANCH   5  25
ATOM     25  O4  M1S d          57.729  76.098  -9.725  0.00  0.00    -0.359 OA
ATOM     26  H21 M1S d          57.615  76.889 -10.238  0.00  0.00     0.217 HD
ENDBRANCH   5  25
TORSDOF 2
ENDMDL
MODEL 10
REMARK VINA RESULT:      -6.5      3.355      4.807
REMARK  2 active torsions:
REMARK  status: ('A' for Active; 'I' for Inactive)
REMARK    1  A    between atoms: C3_3  and  O3_20 
REMARK    2  A    between atoms: C5_5  and  O4_21 
ROOT
ATOM      1  C1  M1S d          59.091  74.991  -3.615  0.00  0.00     0.296 C 
ATOM      2  C2  M1S d          60.226  75.085  -2.638  0.00  0.00     0.081 A 
ATOM      3  C3  M1S d          60.008  75.771  -1.430  0.00  0.00     0.085 A 
ATOM      4  C4  M1S d          61.018  75.934  -0.491  0.00  0.00     0.076 A 
ATOM      5  C5  M1S d          62.269  75.397  -0.801  0.00  0.00     0.090 A 
ATOM      6  C6  M1S d          62.449  74.728  -1.980  0.00  0.00     0.075 A 
ATOM      7  C7  M1S d          61.471  74.545  -2.945  0.00  0.00    -0.008 A 
ATOM      8  C8  M1S d          61.781  73.773  -4.235  0.00  0.00     0.119 C 
ATOM      9  C9  M1S d          62.230  74.613  -5.395  0.00  0.00     0.131 C 
ATOM     10  C10 M1S d          62.766  76.004  -5.213  0.00  0.00     0.078 C 
ATOM     11  C11 M1S d          63.160  76.614  -6.563  0.00  0.00     0.007 C 
ATOM     12  C12 M1S d          63.572  78.071  -6.423  0.00  0.00     0.001 C 
ATOM     13  C13 M1S d          62.437  78.960  -5.915  0.00  0.00     0.004 C 
ATOM     14  C14 M1S d          61.301  79.033  -6.933  0.00  0.00     0.027 C 
ATOM     15  C15 M1S d          60.067  78.358  -6.379  0.00  0.00    -0.031 C 
ATOM     16  C16 M1S d          59.541  77.307  -7.004  0.00  0.00    -0.029 C 
ATOM     17  C17 M1S d          58.298  76.637  -6.463  0.00  0.00     0.053 C 
ATOM     18  C18 M1S d          58.500  75.207  -5.972  0.00  0.00     0.183 C 
ATOM     19  O2  M1S d          57.924  74.829  -3.330  0.00  0.00    -0.259 OA
ATOM     20 CL1  M1S d          64.042  74.005  -2.254  0.00  0.00    -0.081 Cl
ATOM     21  O5  M1S d          62.175  74.067  -6.500  0.00  0.00    -0.298 OA
ATOM     22  O1  M1S d          59.521  75.225  -4.939  0.00  0.00    -0.317 OA
ENDROOT
BRANCH   3  23
ATOM     23  O3  M1S d          58.754  76.273  -1.129  0.00  0.00    -0.360 OA
ATOM     24  H20 M1S d          58.829  76.912  -0.431  0.00  0.00     0.217 HD
ENDBRANCH   3  23
BRANCH   5  25
ATOM     25  O4  M1S d          63.321  75.568   0.066  0.00  0.00    -0.359 OA
ATOM     26  H21 M1S d          64.037  74.998  -0.190  0.00  0.00     0.217 HD
ENDBRANCH   5  25
TORSDOF 2
ENDMDL
