MODEL 1
REMARK VINA RESULT:      -8.3      0.000      0.000
REMARK  6 active torsions:
REMARK  status: ('A' for Active; 'I' for Inactive)
REMARK    1  A    between atoms: CAX_6  and  CAW_7 
REMARK       I    between atoms: CAW_7  and  NAR_9 
REMARK    2  A    between atoms: CAO_16  and  CAN_18 
REMARK    3  A    between atoms: CAN_18  and  CAL_19 
REMARK    4  A    between atoms: CAL_19  and  NAM_20 
REMARK    5  A    between atoms: CAL_19  and  CAK_21 
REMARK    6  A    between atoms: CAK_21  and  CAG_22 
ROOT
ATOM      1  CAW KR2 d          -5.950   1.174  -5.382  0.00  0.00     0.376 C 
ATOM      2  OAA KR2 d          -4.702   1.114  -6.082  0.00  0.00    -0.182 OA
ATOM      3  NAR KR2 d          -6.488   2.544  -5.347  0.00  0.00     0.058 N 
ATOM      4  CAV KR2 d          -7.695   2.615  -6.188  0.00  0.00     0.267 C 
ATOM      5  CDD KR2 d          -7.752   3.826  -7.121  0.00  0.00     0.030 C 
ATOM      6  CNN KR2 d          -6.779   3.726  -8.299  0.00  0.00     0.003 C 
ATOM      7  CAT KR2 d          -5.367   4.217  -7.957  0.00  0.00     0.022 C 
ATOM      8  CAS KR2 d          -4.680   3.378  -6.873  0.00  0.00     0.158 C 
ATOM      9  NAQ KR2 d          -5.475   3.407  -5.634  0.00  0.00    -0.187 N 
ATOM     10  CAO KR2 d          -5.429   4.462  -4.830  0.00  0.00     0.180 C 
ATOM     11  OAP KR2 d          -6.418   4.781  -3.956  0.00  0.00    -0.175 OA
ATOM     12  H8  KR2 d          -6.783   2.745  -4.404  0.00  0.00     0.314 HD
ENDROOT
BRANCH  10  13
ATOM     13  CAN KR2 d          -4.253   5.429  -4.939  0.00  0.00     0.122 C 
BRANCH  13  14
ATOM     14  CAL KR2 d          -3.751   5.814  -3.548  0.00  0.00     0.195 C 
BRANCH  14  15
ATOM     15  NAM KR2 d          -2.395   6.348  -3.735  0.00  0.00    -0.074 N 
ATOM     16  H22 KR2 d          -2.240   7.104  -3.086  0.00  0.00     0.274 HD
ATOM     17  H23 KR2 d          -2.295   6.689  -4.678  0.00  0.00     0.274 HD
ATOM     18  H24 KR2 d          -1.720   5.618  -3.567  0.00  0.00     0.274 HD
ENDBRANCH  14  15
BRANCH  14  19
ATOM     19  CAK KR2 d          -3.507   4.675  -2.559  0.00  0.00     0.075 C 
BRANCH  19  20
ATOM     20  CAG KR2 d          -3.821   4.815  -1.211  0.00  0.00    -0.015 A 
ATOM     21  CAH KR2 d          -4.858   5.644  -0.813  0.00  0.00     0.055 A 
ATOM     22  CAC KR2 d          -5.055   5.986   0.523  0.00  0.00     0.155 A 
ATOM     23  FAB KR2 d          -6.171   6.659   0.858  0.00  0.00    -0.203 F 
ATOM     24  CAD KR2 d          -4.169   5.502   1.480  0.00  0.00     0.157 A 
ATOM     25  FAI KR2 d          -4.071   6.065   2.700  0.00  0.00    -0.203 F 
ATOM     26  CAE KR2 d          -3.184   4.602   1.096  0.00  0.00     0.088 A 
ATOM     27  CAF KR2 d          -3.009   4.241  -0.236  0.00  0.00     0.125 A 
ATOM     28  FAJ KR2 d          -1.992   3.417  -0.538  0.00  0.00    -0.205 F 
ENDBRANCH  19  20
ENDBRANCH  14  19
ENDBRANCH  13  14
ENDBRANCH  10  13
BRANCH   1  29
ATOM     29  CAX KR2 d          -5.696   0.857  -3.904  0.00  0.00     0.016 A 
ATOM     30  CAY KR2 d          -4.609   1.432  -3.249  0.00  0.00     0.012 A 
ATOM     31  CBC KR2 d          -4.219   0.961  -1.997  0.00  0.00     0.001 A 
ATOM     32  CBB KR2 d          -4.918  -0.085  -1.398  0.00  0.00     0.000 A 
ATOM     33  CBA KR2 d          -6.013  -0.651  -2.048  0.00  0.00     0.001 A 
ATOM     34  CAZ KR2 d          -6.405  -0.176  -3.297  0.00  0.00     0.012 A 
ENDBRANCH   1  29
TORSDOF 6
ENDMDL
MODEL 2
REMARK VINA RESULT:      -8.2      1.968      3.133
REMARK  6 active torsions:
REMARK  status: ('A' for Active; 'I' for Inactive)
REMARK    1  A    between atoms: CAX_6  and  CAW_7 
REMARK       I    between atoms: CAW_7  and  NAR_9 
REMARK    2  A    between atoms: CAO_16  and  CAN_18 
REMARK    3  A    between atoms: CAN_18  and  CAL_19 
REMARK    4  A    between atoms: CAL_19  and  NAM_20 
REMARK    5  A    between atoms: CAL_19  and  CAK_21 
REMARK    6  A    between atoms: CAK_21  and  CAG_22 
ROOT
ATOM      1  CAW KR2 d          -5.001   3.622  -7.883  0.00  0.00     0.376 C 
ATOM      2  OAA KR2 d          -3.799   2.857  -7.735  0.00  0.00    -0.182 OA
ATOM      3  NAR KR2 d          -4.813   5.018  -7.451  0.00  0.00     0.058 N 
ATOM      4  CAV KR2 d          -4.873   5.902  -8.627  0.00  0.00     0.267 C 
ATOM      5  CDD KR2 d          -3.769   6.960  -8.686  0.00  0.00     0.030 C 
ATOM      6  CNN KR2 d          -2.395   6.380  -9.031  0.00  0.00     0.003 C 
ATOM      7  CAT KR2 d          -1.643   5.846  -7.807  0.00  0.00     0.022 C 
ATOM      8  CAS KR2 d          -2.350   4.669  -7.125  0.00  0.00     0.158 C 
ATOM      9  NAQ KR2 d          -3.693   5.078  -6.681  0.00  0.00    -0.187 N 
ATOM     10  CAO KR2 d          -3.845   5.795  -5.573  0.00  0.00     0.180 C 
ATOM     11  OAP KR2 d          -4.925   6.583  -5.335  0.00  0.00    -0.175 OA
ATOM     12  H8  KR2 d          -5.588   5.273  -6.859  0.00  0.00     0.314 HD
ENDROOT
BRANCH  10  13
ATOM     13  CAN KR2 d          -2.720   5.819  -4.542  0.00  0.00     0.122 C 
BRANCH  13  14
ATOM     14  CAL KR2 d          -3.283   6.094  -3.148  0.00  0.00     0.195 C 
BRANCH  14  15
ATOM     15  NAM KR2 d          -2.153   6.565  -2.336  0.00  0.00    -0.074 N 
ATOM     16  H22 KR2 d          -1.425   5.869  -2.337  0.00  0.00     0.274 HD
ATOM     17  H23 KR2 d          -2.463   6.725  -1.390  0.00  0.00     0.274 HD
ATOM     18  H24 KR2 d          -1.797   7.425  -2.723  0.00  0.00     0.274 HD
ENDBRANCH  14  15
BRANCH  14  19
ATOM     19  CAK KR2 d          -3.766   4.887  -2.345  0.00  0.00     0.075 C 
BRANCH  19  20
ATOM     20  CAG KR2 d          -4.003   4.982  -0.977  0.00  0.00    -0.015 A 
ATOM     21  CAH KR2 d          -4.990   5.826  -0.493  0.00  0.00     0.055 A 
ATOM     22  CAC KR2 d          -5.104   6.121   0.864  0.00  0.00     0.155 A 
ATOM     23  FAB KR2 d          -6.179   6.812   1.285  0.00  0.00    -0.203 F 
ATOM     24  CAD KR2 d          -4.184   5.572   1.752  0.00  0.00     0.157 A 
ATOM     25  FAI KR2 d          -4.003   6.084   2.986  0.00  0.00    -0.203 F 
ATOM     26  CAE KR2 d          -3.250   4.660   1.281  0.00  0.00     0.088 A 
ATOM     27  CAF KR2 d          -3.159   4.346  -0.071  0.00  0.00     0.125 A 
ATOM     28  FAJ KR2 d          -2.186   3.505  -0.459  0.00  0.00    -0.205 F 
ENDBRANCH  19  20
ENDBRANCH  14  19
ENDBRANCH  13  14
ENDBRANCH  10  13
BRANCH   1  29
ATOM     29  CAX KR2 d          -6.044   3.086  -6.896  0.00  0.00     0.016 A 
ATOM     30  CAY KR2 d          -5.678   2.128  -5.953  0.00  0.00     0.012 A 
ATOM     31  CBC KR2 d          -6.656   1.450  -5.230  0.00  0.00     0.001 A 
ATOM     32  CBB KR2 d          -8.004   1.732  -5.448  0.00  0.00     0.000 A 
ATOM     33  CBA KR2 d          -8.369   2.699  -6.382  0.00  0.00     0.001 A 
ATOM     34  CAZ KR2 d          -7.389   3.379  -7.101  0.00  0.00     0.012 A 
ENDBRANCH   1  29
TORSDOF 6
ENDMDL
MODEL 3
REMARK VINA RESULT:      -8.0      3.550      6.429
REMARK  6 active torsions:
REMARK  status: ('A' for Active; 'I' for Inactive)
REMARK    1  A    between atoms: CAX_6  and  CAW_7 
REMARK       I    between atoms: CAW_7  and  NAR_9 
REMARK    2  A    between atoms: CAO_16  and  CAN_18 
REMARK    3  A    between atoms: CAN_18  and  CAL_19 
REMARK    4  A    between atoms: CAL_19  and  NAM_20 
REMARK    5  A    between atoms: CAL_19  and  CAK_21 
REMARK    6  A    between atoms: CAK_21  and  CAG_22 
ROOT
ATOM      1  CAW KR2 d          -4.560   5.335  -3.131  0.00  0.00     0.376 C 
ATOM      2  OAA KR2 d          -5.975   5.301  -3.352  0.00  0.00    -0.182 OA
ATOM      3  NAR KR2 d          -3.871   4.251  -3.850  0.00  0.00     0.058 N 
ATOM      4  CAV KR2 d          -3.063   4.825  -4.939  0.00  0.00     0.267 C 
ATOM      5  CDD KR2 d          -3.195   4.103  -6.281  0.00  0.00     0.030 C 
ATOM      6  CNN KR2 d          -4.538   4.353  -6.971  0.00  0.00     0.003 C 
ATOM      7  CAT KR2 d          -5.645   3.405  -6.496  0.00  0.00     0.022 C 
ATOM      8  CAS KR2 d          -5.988   3.568  -5.011  0.00  0.00     0.158 C 
ATOM      9  NAQ KR2 d          -4.794   3.310  -4.188  0.00  0.00    -0.187 N 
ATOM     10  CAO KR2 d          -4.400   2.064  -3.947  0.00  0.00     0.180 C 
ATOM     11  OAP KR2 d          -3.125   1.734  -3.618  0.00  0.00    -0.175 OA
ATOM     12  H8  KR2 d          -3.224   3.809  -3.215  0.00  0.00     0.314 HD
ENDROOT
BRANCH  10  13
ATOM     13  CAN KR2 d          -5.394   0.921  -4.133  0.00  0.00     0.122 C 
BRANCH  13  14
ATOM     14  CAL KR2 d          -5.971   0.496  -2.783  0.00  0.00     0.195 C 
BRANCH  14  15
ATOM     15  NAM KR2 d          -5.126   1.123  -1.759  0.00  0.00    -0.074 N 
ATOM     16  H22 KR2 d          -5.684   1.338  -0.948  0.00  0.00     0.274 HD
ATOM     17  H23 KR2 d          -4.727   1.972  -2.127  0.00  0.00     0.274 HD
ATOM     18  H24 KR2 d          -4.386   0.489  -1.500  0.00  0.00     0.274 HD
ENDBRANCH  14  15
BRANCH  14  19
ATOM     19  CAK KR2 d          -5.862  -0.984  -2.418  0.00  0.00     0.075 C 
BRANCH  19  20
ATOM     20  CAG KR2 d          -6.978  -1.708  -2.011  0.00  0.00    -0.015 A 
ATOM     21  CAH KR2 d          -8.001  -1.984  -2.905  0.00  0.00     0.055 A 
ATOM     22  CAC KR2 d          -9.225  -2.500  -2.485  0.00  0.00     0.155 A 
ATOM     23  FAB KR2 d         -10.110  -2.897  -3.416  0.00  0.00    -0.203 F 
ATOM     24  CAD KR2 d          -9.433  -2.719  -1.126  0.00  0.00     0.157 A 
ATOM     25  FAI KR2 d         -10.673  -2.860  -0.617  0.00  0.00    -0.203 F 
ATOM     26  CAE KR2 d          -8.382  -2.526  -0.241  0.00  0.00     0.088 A 
ATOM     27  CAF KR2 d          -7.152  -2.038  -0.669  0.00  0.00     0.125 A 
ATOM     28  FAJ KR2 d          -6.205  -1.814   0.257  0.00  0.00    -0.205 F 
ENDBRANCH  19  20
ENDBRANCH  14  19
ENDBRANCH  13  14
ENDBRANCH  10  13
BRANCH   1  29
ATOM     29  CAX KR2 d          -4.289   5.009  -1.658  0.00  0.00     0.016 A 
ATOM     30  CAY KR2 d          -5.039   5.628  -0.661  0.00  0.00     0.012 A 
ATOM     31  CBC KR2 d          -4.639   5.541   0.670  0.00  0.00     0.001 A 
ATOM     32  CBB KR2 d          -3.489   4.830   1.007  0.00  0.00     0.000 A 
ATOM     33  CBA KR2 d          -2.746   4.200   0.011  0.00  0.00     0.001 A 
ATOM     34  CAZ KR2 d          -3.149   4.285  -1.319  0.00  0.00     0.012 A 
ENDBRANCH   1  29
TORSDOF 6
ENDMDL
MODEL 4
REMARK VINA RESULT:      -7.9      4.618      7.347
REMARK  6 active torsions:
REMARK  status: ('A' for Active; 'I' for Inactive)
REMARK    1  A    between atoms: CAX_6  and  CAW_7 
REMARK       I    between atoms: CAW_7  and  NAR_9 
REMARK    2  A    between atoms: CAO_16  and  CAN_18 
REMARK    3  A    between atoms: CAN_18  and  CAL_19 
REMARK    4  A    between atoms: CAL_19  and  NAM_20 
REMARK    5  A    between atoms: CAL_19  and  CAK_21 
REMARK    6  A    between atoms: CAK_21  and  CAG_22 
ROOT
ATOM      1  CAW KR2 d          -4.385   3.314  -3.249  0.00  0.00     0.376 C 
ATOM      2  OAA KR2 d          -3.203   2.581  -3.592  0.00  0.00    -0.182 OA
ATOM      3  NAR KR2 d          -4.719   4.318  -4.273  0.00  0.00     0.058 N 
ATOM      4  CAV KR2 d          -5.951   3.913  -4.969  0.00  0.00     0.267 C 
ATOM      5  CDD KR2 d          -5.891   4.029  -6.494  0.00  0.00     0.030 C 
ATOM      6  CNN KR2 d          -5.015   2.956  -7.146  0.00  0.00     0.003 C 
ATOM      7  CAT KR2 d          -3.530   3.333  -7.186  0.00  0.00     0.022 C 
ATOM      8  CAS KR2 d          -2.905   3.485  -5.794  0.00  0.00     0.158 C 
ATOM      9  NAQ KR2 d          -3.612   4.532  -5.036  0.00  0.00    -0.187 N 
ATOM     10  CAO KR2 d          -3.366   5.815  -5.273  0.00  0.00     0.180 C 
ATOM     11  OAP KR2 d          -4.245   6.810  -4.988  0.00  0.00    -0.175 OA
ATOM     12  H8  KR2 d          -4.924   5.189  -3.809  0.00  0.00     0.314 HD
ENDROOT
BRANCH  10  13
ATOM     13  CAN KR2 d          -2.073   6.206  -5.984  0.00  0.00     0.122 C 
BRANCH  13  14
ATOM     14  CAL KR2 d          -2.377   7.093  -7.190  0.00  0.00     0.195 C 
BRANCH  14  15
ATOM     15  NAM KR2 d          -2.660   8.431  -6.654  0.00  0.00    -0.074 N 
ATOM     16  H22 KR2 d          -1.953   9.076  -6.970  0.00  0.00     0.274 HD
ATOM     17  H23 KR2 d          -2.659   8.397  -5.647  0.00  0.00     0.274 HD
ATOM     18  H24 KR2 d          -3.564   8.738  -6.979  0.00  0.00     0.274 HD
ENDBRANCH  14  15
BRANCH  14  19
ATOM     19  CAK KR2 d          -3.656   6.789  -7.969  0.00  0.00     0.075 C 
BRANCH  19  20
ATOM     20  CAG KR2 d          -3.653   6.727  -9.359  0.00  0.00    -0.015 A 
ATOM     21  CAH KR2 d          -2.729   7.455 -10.093  0.00  0.00     0.055 A 
ATOM     22  CAC KR2 d          -2.837   7.599 -11.474  0.00  0.00     0.155 A 
ATOM     23  FAB KR2 d          -1.823   8.177 -12.143  0.00  0.00    -0.203 F 
ATOM     24  CAD KR2 d          -3.918   7.018 -12.130  0.00  0.00     0.157 A 
ATOM     25  FAI KR2 d          -4.286   7.408 -13.367  0.00  0.00    -0.203 F 
ATOM     26  CAE KR2 d          -4.794   6.217 -11.411  0.00  0.00     0.088 A 
ATOM     27  CAF KR2 d          -4.665   6.052 -10.036  0.00  0.00     0.125 A 
ATOM     28  FAJ KR2 d          -5.592   5.316  -9.400  0.00  0.00    -0.205 F 
ENDBRANCH  19  20
ENDBRANCH  14  19
ENDBRANCH  13  14
ENDBRANCH  10  13
BRANCH   1  29
ATOM     29  CAX KR2 d          -4.090   4.162  -2.007  0.00  0.00     0.016 A 
ATOM     30  CAY KR2 d          -3.184   3.703  -1.053  0.00  0.00     0.012 A 
ATOM     31  CBC KR2 d          -3.100   4.329   0.188  0.00  0.00     0.001 A 
ATOM     32  CBB KR2 d          -3.920   5.418   0.476  0.00  0.00     0.000 A 
ATOM     33  CBA KR2 d          -4.817   5.885  -0.483  0.00  0.00     0.001 A 
ATOM     34  CAZ KR2 d          -4.897   5.261  -1.725  0.00  0.00     0.012 A 
ENDBRANCH   1  29
TORSDOF 6
ENDMDL
MODEL 5
REMARK VINA RESULT:      -7.8      4.405      8.178
REMARK  6 active torsions:
REMARK  status: ('A' for Active; 'I' for Inactive)
REMARK    1  A    between atoms: CAX_6  and  CAW_7 
REMARK       I    between atoms: CAW_7  and  NAR_9 
REMARK    2  A    between atoms: CAO_16  and  CAN_18 
REMARK    3  A    between atoms: CAN_18  and  CAL_19 
REMARK    4  A    between atoms: CAL_19  and  NAM_20 
REMARK    5  A    between atoms: CAL_19  and  CAK_21 
REMARK    6  A    between atoms: CAK_21  and  CAG_22 
ROOT
ATOM      1  CAW KR2 d          -2.464   5.564  -5.016  0.00  0.00     0.376 C 
ATOM      2  OAA KR2 d          -1.974   4.251  -5.315  0.00  0.00    -0.182 OA
ATOM      3  NAR KR2 d          -3.732   5.514  -4.269  0.00  0.00     0.058 N 
ATOM      4  CAV KR2 d          -3.505   5.988  -2.893  0.00  0.00     0.267 C 
ATOM      5  CDD KR2 d          -4.137   5.116  -1.806  0.00  0.00     0.030 C 
ATOM      6  CNN KR2 d          -3.413   3.783  -1.605  0.00  0.00     0.003 C 
ATOM      7  CAT KR2 d          -3.881   2.691  -2.573  0.00  0.00     0.022 C 
ATOM      8  CAS KR2 d          -3.592   3.019  -4.043  0.00  0.00     0.158 C 
ATOM      9  NAQ KR2 d          -4.267   4.272  -4.421  0.00  0.00    -0.187 N 
ATOM     10  CAO KR2 d          -5.568   4.281  -4.688  0.00  0.00     0.180 C 
ATOM     11  OAP KR2 d          -6.344   5.391  -4.593  0.00  0.00    -0.175 OA
ATOM     12  H8  KR2 d          -4.376   6.163  -4.693  0.00  0.00     0.314 HD
ENDROOT
BRANCH  10  13
ATOM     13  CAN KR2 d          -6.264   2.968  -5.036  0.00  0.00     0.122 C 
BRANCH  13  14
ATOM     14  CAL KR2 d          -6.918   3.063  -6.414  0.00  0.00     0.195 C 
BRANCH  14  15
ATOM     15  NAM KR2 d          -6.210   4.132  -7.131  0.00  0.00    -0.074 N 
ATOM     16  H22 KR2 d          -5.215   3.997  -7.038  0.00  0.00     0.274 HD
ATOM     17  H23 KR2 d          -6.466   5.025  -6.741  0.00  0.00     0.274 HD
ATOM     18  H24 KR2 d          -6.462   4.106  -8.107  0.00  0.00     0.274 HD
ENDBRANCH  14  15
BRANCH  14  19
ATOM     19  CAK KR2 d          -8.363   3.555  -6.464  0.00  0.00     0.075 C 
BRANCH  19  20
ATOM     20  CAG KR2 d          -9.372   2.767  -7.009  0.00  0.00    -0.015 A 
ATOM     21  CAH KR2 d          -9.868   1.677  -6.311  0.00  0.00     0.055 A 
ATOM     22  CAC KR2 d         -10.705   0.739  -6.910  0.00  0.00     0.155 A 
ATOM     23  FAB KR2 d         -11.280  -0.200  -6.136  0.00  0.00    -0.203 F 
ATOM     24  CAD KR2 d         -11.030   0.888  -8.255  0.00  0.00     0.157 A 
ATOM     25  FAI KR2 d         -11.514  -0.139  -8.982  0.00  0.00    -0.203 F 
ATOM     26  CAE KR2 d         -10.607   2.023  -8.931  0.00  0.00     0.088 A 
ATOM     27  CAF KR2 d          -9.795   2.972  -8.320  0.00  0.00     0.125 A 
ATOM     28  FAJ KR2 d          -9.371   4.010  -9.060  0.00  0.00    -0.205 F 
ENDBRANCH  19  20
ENDBRANCH  14  19
ENDBRANCH  13  14
ENDBRANCH  10  13
BRANCH   1  29
ATOM     29  CAX KR2 d          -2.856   6.249  -6.330  0.00  0.00     0.016 A 
ATOM     30  CAY KR2 d          -2.816   5.533  -7.524  0.00  0.00     0.012 A 
ATOM     31  CBC KR2 d          -2.918   6.199  -8.742  0.00  0.00     0.001 A 
ATOM     32  CBB KR2 d          -3.062   7.585  -8.768  0.00  0.00     0.000 A 
ATOM     33  CBA KR2 d          -3.115   8.300  -7.573  0.00  0.00     0.001 A 
ATOM     34  CAZ KR2 d          -3.017   7.632  -6.355  0.00  0.00     0.012 A 
ENDBRANCH   1  29
TORSDOF 6
ENDMDL
MODEL 6
REMARK VINA RESULT:      -7.7      3.961      7.639
REMARK  6 active torsions:
REMARK  status: ('A' for Active; 'I' for Inactive)
REMARK    1  A    between atoms: CAX_6  and  CAW_7 
REMARK       I    between atoms: CAW_7  and  NAR_9 
REMARK    2  A    between atoms: CAO_16  and  CAN_18 
REMARK    3  A    between atoms: CAN_18  and  CAL_19 
REMARK    4  A    between atoms: CAL_19  and  NAM_20 
REMARK    5  A    between atoms: CAL_19  and  CAK_21 
REMARK    6  A    between atoms: CAK_21  and  CAG_22 
ROOT
ATOM      1  CAW KR2 d          -2.266   5.653  -5.096  0.00  0.00     0.376 C 
ATOM      2  OAA KR2 d          -1.857   4.297  -5.314  0.00  0.00    -0.182 OA
ATOM      3  NAR KR2 d          -3.511   5.726  -4.313  0.00  0.00     0.058 N 
ATOM      4  CAV KR2 d          -3.217   6.281  -2.981  0.00  0.00     0.267 C 
ATOM      5  CDD KR2 d          -3.860   5.525  -1.818  0.00  0.00     0.030 C 
ATOM      6  CNN KR2 d          -3.203   4.170  -1.542  0.00  0.00     0.003 C 
ATOM      7  CAT KR2 d          -3.759   3.042  -2.417  0.00  0.00     0.022 C 
ATOM      8  CAS KR2 d          -3.499   3.249  -3.913  0.00  0.00     0.158 C 
ATOM      9  NAQ KR2 d          -4.117   4.508  -4.361  0.00  0.00    -0.187 N 
ATOM     10  CAO KR2 d          -5.423   4.571  -4.593  0.00  0.00     0.180 C 
ATOM     11  OAP KR2 d          -6.135   5.727  -4.556  0.00  0.00    -0.175 OA
ATOM     12  H8  KR2 d          -4.133   6.379  -4.765  0.00  0.00     0.314 HD
ENDROOT
BRANCH  10  13
ATOM     13  CAN KR2 d          -6.200   3.278  -4.827  0.00  0.00     0.122 C 
BRANCH  13  14
ATOM     14  CAL KR2 d          -7.150   3.436  -6.013  0.00  0.00     0.195 C 
BRANCH  14  15
ATOM     15  NAM KR2 d          -8.357   4.089  -5.488  0.00  0.00    -0.074 N 
ATOM     16  H22 KR2 d          -9.150   3.835  -6.055  0.00  0.00     0.274 HD
ATOM     17  H23 KR2 d          -8.235   5.089  -5.509  0.00  0.00     0.274 HD
ATOM     18  H24 KR2 d          -8.514   3.789  -4.538  0.00  0.00     0.274 HD
ENDBRANCH  14  15
BRANCH  14  19
ATOM     19  CAK KR2 d          -7.723   2.156  -6.618  0.00  0.00     0.075 C 
BRANCH  19  20
ATOM     20  CAG KR2 d          -8.580   1.338  -5.889  0.00  0.00    -0.015 A 
ATOM     21  CAH KR2 d          -8.082   0.489  -4.913  0.00  0.00     0.055 A 
ATOM     22  CAC KR2 d          -8.868  -0.500  -4.327  0.00  0.00     0.155 A 
ATOM     23  FAB KR2 d          -8.373  -1.178  -3.275  0.00  0.00    -0.203 F 
ATOM     24  CAD KR2 d         -10.183  -0.656  -4.754  0.00  0.00     0.157 A 
ATOM     25  FAI KR2 d         -10.874  -1.788  -4.513  0.00  0.00    -0.203 F 
ATOM     26  CAE KR2 d         -10.710   0.248  -5.666  0.00  0.00     0.088 A 
ATOM     27  CAF KR2 d          -9.928   1.252  -6.227  0.00  0.00     0.125 A 
ATOM     28  FAJ KR2 d         -10.491   2.046  -7.153  0.00  0.00    -0.205 F 
ENDBRANCH  19  20
ENDBRANCH  14  19
ENDBRANCH  13  14
ENDBRANCH  10  13
BRANCH   1  29
ATOM     29  CAX KR2 d          -2.662   6.265  -6.445  0.00  0.00     0.016 A 
ATOM     30  CAY KR2 d          -2.388   5.578  -7.625  0.00  0.00     0.012 A 
ATOM     31  CBC KR2 d          -2.504   6.225  -8.853  0.00  0.00     0.001 A 
ATOM     32  CBB KR2 d          -2.898   7.561  -8.901  0.00  0.00     0.000 A 
ATOM     33  CBA KR2 d          -3.184   8.244  -7.721  0.00  0.00     0.001 A 
ATOM     34  CAZ KR2 d          -3.072   7.595  -6.495  0.00  0.00     0.012 A 
ENDBRANCH   1  29
TORSDOF 6
ENDMDL
MODEL 7
REMARK VINA RESULT:      -7.6      5.270      7.955
REMARK  6 active torsions:
REMARK  status: ('A' for Active; 'I' for Inactive)
REMARK    1  A    between atoms: CAX_6  and  CAW_7 
REMARK       I    between atoms: CAW_7  and  NAR_9 
REMARK    2  A    between atoms: CAO_16  and  CAN_18 
REMARK    3  A    between atoms: CAN_18  and  CAL_19 
REMARK    4  A    between atoms: CAL_19  and  NAM_20 
REMARK    5  A    between atoms: CAL_19  and  CAK_21 
REMARK    6  A    between atoms: CAK_21  and  CAG_22 
ROOT
ATOM      1  CAW KR2 d          -9.316   2.912  -9.468  0.00  0.00     0.376 C 
ATOM      2  OAA KR2 d         -10.721   3.150  -9.323  0.00  0.00    -0.182 OA
ATOM      3  NAR KR2 d          -9.032   1.499  -9.768  0.00  0.00     0.058 N 
ATOM      4  CAV KR2 d          -8.537   1.385 -11.150  0.00  0.00     0.267 C 
ATOM      5  CDD KR2 d          -9.174   0.258 -11.965  0.00  0.00     0.030 C 
ATOM      6  CNN KR2 d         -10.622   0.549 -12.369  0.00  0.00     0.003 C 
ATOM      7  CAT KR2 d         -11.637   0.168 -11.287  0.00  0.00     0.022 C 
ATOM      8  CAS KR2 d         -11.475   0.973  -9.992  0.00  0.00     0.158 C 
ATOM      9  NAQ KR2 d         -10.128   0.764  -9.435  0.00  0.00    -0.187 N 
ATOM     10  CAO KR2 d          -9.842  -0.347  -8.765  0.00  0.00     0.180 C 
ATOM     11  OAP KR2 d          -8.582  -0.831  -8.622  0.00  0.00    -0.175 OA
ATOM     12  H8  KR2 d          -8.282   1.192  -9.168  0.00  0.00     0.314 HD
ENDROOT
BRANCH  10  13
ATOM     13  CAN KR2 d         -10.983  -1.184  -8.194  0.00  0.00     0.122 C 
BRANCH  13  14
ATOM     14  CAL KR2 d         -10.637  -1.663  -6.785  0.00  0.00     0.195 C 
BRANCH  14  15
ATOM     15  NAM KR2 d         -11.773  -2.479  -6.338  0.00  0.00    -0.074 N 
ATOM     16  H22 KR2 d         -11.456  -3.414  -6.135  0.00  0.00     0.274 HD
ATOM     17  H23 KR2 d         -12.471  -2.511  -7.064  0.00  0.00     0.274 HD
ATOM     18  H24 KR2 d         -12.173  -2.072  -5.506  0.00  0.00     0.274 HD
ENDBRANCH  14  15
BRANCH  14  19
ATOM     19  CAK KR2 d         -10.564  -0.599  -5.690  0.00  0.00     0.075 C 
BRANCH  19  20
ATOM     20  CAG KR2 d          -9.476  -0.532  -4.825  0.00  0.00    -0.015 A 
ATOM     21  CAH KR2 d          -8.425   0.334  -5.083  0.00  0.00     0.055 A 
ATOM     22  CAC KR2 d          -7.227   0.267  -4.376  0.00  0.00     0.155 A 
ATOM     23  FAB KR2 d          -6.314   1.238  -4.562  0.00  0.00    -0.203 F 
ATOM     24  CAD KR2 d          -7.074  -0.714  -3.401  0.00  0.00     0.157 A 
ATOM     25  FAI KR2 d          -5.857  -1.072  -2.946  0.00  0.00    -0.203 F 
ATOM     26  CAE KR2 d          -8.154  -1.524  -3.081  0.00  0.00     0.088 A 
ATOM     27  CAF KR2 d          -9.359  -1.435  -3.771  0.00  0.00     0.125 A 
ATOM     28  FAJ KR2 d         -10.336  -2.298  -3.449  0.00  0.00    -0.205 F 
ENDBRANCH  19  20
ENDBRANCH  14  19
ENDBRANCH  13  14
ENDBRANCH  10  13
BRANCH   1  29
ATOM     29  CAX KR2 d          -8.644   3.125  -8.107  0.00  0.00     0.016 A 
ATOM     30  CAY KR2 d          -9.416   3.450  -6.994  0.00  0.00     0.012 A 
ATOM     31  CBC KR2 d          -8.805   3.894  -5.825  0.00  0.00     0.001 A 
ATOM     32  CBB KR2 d          -7.418   4.012  -5.765  0.00  0.00     0.000 A 
ATOM     33  CBA KR2 d          -6.644   3.675  -6.874  0.00  0.00     0.001 A 
ATOM     34  CAZ KR2 d          -7.256   3.227  -8.041  0.00  0.00     0.012 A 
ENDBRANCH   1  29
TORSDOF 6
ENDMDL
MODEL 8
REMARK VINA RESULT:      -7.5      3.157      5.895
REMARK  6 active torsions:
REMARK  status: ('A' for Active; 'I' for Inactive)
REMARK    1  A    between atoms: CAX_6  and  CAW_7 
REMARK       I    between atoms: CAW_7  and  NAR_9 
REMARK    2  A    between atoms: CAO_16  and  CAN_18 
REMARK    3  A    between atoms: CAN_18  and  CAL_19 
REMARK    4  A    between atoms: CAL_19  and  NAM_20 
REMARK    5  A    between atoms: CAL_19  and  CAK_21 
REMARK    6  A    between atoms: CAK_21  and  CAG_22 
ROOT
ATOM      1  CAW KR2 d          -6.889  -2.663  -1.184  0.00  0.00     0.376 C 
ATOM      2  OAA KR2 d          -6.729  -1.793  -0.057  0.00  0.00    -0.182 OA
ATOM      3  NAR KR2 d          -5.660  -2.739  -1.991  0.00  0.00     0.058 N 
ATOM      4  CAV KR2 d          -5.071  -4.082  -1.856  0.00  0.00     0.267 C 
ATOM      5  CDD KR2 d          -3.561  -4.096  -1.608  0.00  0.00     0.030 C 
ATOM      6  CNN KR2 d          -3.178  -3.643  -0.197  0.00  0.00     0.003 C 
ATOM      7  CAT KR2 d          -3.058  -2.122  -0.064  0.00  0.00     0.022 C 
ATOM      8  CAS KR2 d          -4.379  -1.384  -0.312  0.00  0.00     0.158 C 
ATOM      9  NAQ KR2 d          -4.872  -1.677  -1.668  0.00  0.00    -0.187 N 
ATOM     10  CAO KR2 d          -4.346  -1.063  -2.722  0.00  0.00     0.180 C 
ATOM     11  OAP KR2 d          -4.391  -1.568  -3.981  0.00  0.00    -0.175 OA
ATOM     12  H8  KR2 d          -5.910  -2.632  -2.962  0.00  0.00     0.314 HD
ENDROOT
BRANCH  10  13
ATOM     13  CAN KR2 d          -3.570   0.234  -2.515  0.00  0.00     0.122 C 
BRANCH  13  14
ATOM     14  CAL KR2 d          -4.446   1.438  -2.861  0.00  0.00     0.195 C 
BRANCH  14  15
ATOM     15  NAM KR2 d          -5.002   1.171  -4.194  0.00  0.00    -0.074 N 
ATOM     16  H22 KR2 d          -4.593   0.328  -4.566  0.00  0.00     0.274 HD
ATOM     17  H23 KR2 d          -4.794   1.943  -4.807  0.00  0.00     0.274 HD
ATOM     18  H24 KR2 d          -6.001   1.057  -4.125  0.00  0.00     0.274 HD
ENDBRANCH  14  15
BRANCH  14  19
ATOM     19  CAK KR2 d          -3.734   2.773  -3.079  0.00  0.00     0.075 C 
BRANCH  19  20
ATOM     20  CAG KR2 d          -3.704   3.742  -2.082  0.00  0.00    -0.015 A 
ATOM     21  CAH KR2 d          -2.986   3.528  -0.915  0.00  0.00     0.055 A 
ATOM     22  CAC KR2 d          -3.115   4.364   0.191  0.00  0.00     0.155 A 
ATOM     23  FAB KR2 d          -2.273   4.198   1.227  0.00  0.00    -0.203 F 
ATOM     24  CAD KR2 d          -4.010   5.428   0.131  0.00  0.00     0.157 A 
ATOM     25  FAI KR2 d          -4.454   6.041   1.247  0.00  0.00    -0.203 F 
ATOM     26  CAE KR2 d          -4.664   5.695  -1.064  0.00  0.00     0.088 A 
ATOM     27  CAF KR2 d          -4.510   4.874  -2.176  0.00  0.00     0.125 A 
ATOM     28  FAJ KR2 d          -5.227   5.159  -3.275  0.00  0.00    -0.205 F 
ENDBRANCH  19  20
ENDBRANCH  14  19
ENDBRANCH  13  14
ENDBRANCH  10  13
BRANCH   1  29
ATOM     29  CAX KR2 d          -7.903  -2.033  -2.146  0.00  0.00     0.016 A 
ATOM     30  CAY KR2 d          -9.170  -2.595  -2.283  0.00  0.00     0.012 A 
ATOM     31  CBC KR2 d         -10.001  -2.197  -3.327  0.00  0.00     0.001 A 
ATOM     32  CBB KR2 d          -9.566  -1.233  -4.235  0.00  0.00     0.000 A 
ATOM     33  CBA KR2 d          -8.304  -0.662  -4.089  0.00  0.00     0.001 A 
ATOM     34  CAZ KR2 d          -7.476  -1.057  -3.043  0.00  0.00     0.012 A 
ENDBRANCH   1  29
TORSDOF 6
ENDMDL
MODEL 9
REMARK VINA RESULT:      -7.4      4.514      7.826
REMARK  6 active torsions:
REMARK  status: ('A' for Active; 'I' for Inactive)
REMARK    1  A    between atoms: CAX_6  and  CAW_7 
REMARK       I    between atoms: CAW_7  and  NAR_9 
REMARK    2  A    between atoms: CAO_16  and  CAN_18 
REMARK    3  A    between atoms: CAN_18  and  CAL_19 
REMARK    4  A    between atoms: CAL_19  and  NAM_20 
REMARK    5  A    between atoms: CAL_19  and  CAK_21 
REMARK    6  A    between atoms: CAK_21  and  CAG_22 
ROOT
ATOM      1  CAW KR2 d          -6.596   2.903  -5.270  0.00  0.00     0.376 C 
ATOM      2  OAA KR2 d          -7.365   4.023  -4.817  0.00  0.00    -0.182 OA
ATOM      3  NAR KR2 d          -5.150   3.176  -5.213  0.00  0.00     0.058 N 
ATOM      4  CAV KR2 d          -4.540   2.347  -4.161  0.00  0.00     0.267 C 
ATOM      5  CDD KR2 d          -3.571   3.094  -3.242  0.00  0.00     0.030 C 
ATOM      6  CNN KR2 d          -4.274   4.043  -2.268  0.00  0.00     0.003 C 
ATOM      7  CAT KR2 d          -4.563   5.421  -2.872  0.00  0.00     0.022 C 
ATOM      8  CAS KR2 d          -5.531   5.372  -4.060  0.00  0.00     0.158 C 
ATOM      9  NAQ KR2 d          -4.975   4.523  -5.127  0.00  0.00    -0.187 N 
ATOM     10  CAO KR2 d          -4.029   4.991  -5.934  0.00  0.00     0.180 C 
ATOM     11  OAP KR2 d          -3.160   4.195  -6.608  0.00  0.00    -0.175 OA
ATOM     12  H8  KR2 d          -4.737   2.884  -6.085  0.00  0.00     0.314 HD
ENDROOT
BRANCH  10  13
ATOM     13  CAN KR2 d          -3.833   6.499  -6.054  0.00  0.00     0.122 C 
BRANCH  13  14
ATOM     14  CAL KR2 d          -2.876   6.821  -7.201  0.00  0.00     0.195 C 
BRANCH  14  15
ATOM     15  NAM KR2 d          -1.946   7.836  -6.686  0.00  0.00    -0.074 N 
ATOM     16  H22 KR2 d          -1.376   8.183  -7.441  0.00  0.00     0.274 HD
ATOM     17  H23 KR2 d          -1.355   7.424  -5.981  0.00  0.00     0.274 HD
ATOM     18  H24 KR2 d          -2.470   8.597  -6.283  0.00  0.00     0.274 HD
ENDBRANCH  14  15
BRANCH  14  19
ATOM     19  CAK KR2 d          -3.467   7.526  -8.420  0.00  0.00     0.075 C 
BRANCH  19  20
ATOM     20  CAG KR2 d          -3.645   6.851  -9.624  0.00  0.00    -0.015 A 
ATOM     21  CAH KR2 d          -2.867   7.165 -10.728  0.00  0.00     0.055 A 
ATOM     22  CAC KR2 d          -3.165   6.680 -11.999  0.00  0.00     0.155 A 
ATOM     23  FAB KR2 d          -2.281   6.888 -12.991  0.00  0.00    -0.203 F 
ATOM     24  CAD KR2 d          -4.290   5.880 -12.168  0.00  0.00     0.157 A 
ATOM     25  FAI KR2 d          -4.840   5.682 -13.383  0.00  0.00    -0.203 F 
ATOM     26  CAE KR2 d          -5.019   5.493 -11.052  0.00  0.00     0.088 A 
ATOM     27  CAF KR2 d          -4.701   5.957  -9.780  0.00  0.00     0.125 A 
ATOM     28  FAJ KR2 d          -5.494   5.592  -8.759  0.00  0.00    -0.205 F 
ENDBRANCH  19  20
ENDBRANCH  14  19
ENDBRANCH  13  14
ENDBRANCH  10  13
BRANCH   1  29
ATOM     29  CAX KR2 d          -6.858   2.705  -6.768  0.00  0.00     0.016 A 
ATOM     30  CAY KR2 d          -5.945   1.996  -7.544  0.00  0.00     0.012 A 
ATOM     31  CBC KR2 d          -6.035   2.029  -8.933  0.00  0.00     0.001 A 
ATOM     32  CBB KR2 d          -7.043   2.769  -9.549  0.00  0.00     0.000 A 
ATOM     33  CBA KR2 d          -7.964   3.468  -8.772  0.00  0.00     0.001 A 
ATOM     34  CAZ KR2 d          -7.875   3.432  -7.383  0.00  0.00     0.012 A 
ENDBRANCH   1  29
TORSDOF 6
ENDMDL
MODEL 10
REMARK VINA RESULT:      -7.3      4.449      8.258
REMARK  6 active torsions:
REMARK  status: ('A' for Active; 'I' for Inactive)
REMARK    1  A    between atoms: CAX_6  and  CAW_7 
REMARK       I    between atoms: CAW_7  and  NAR_9 
REMARK    2  A    between atoms: CAO_16  and  CAN_18 
REMARK    3  A    between atoms: CAN_18  and  CAL_19 
REMARK    4  A    between atoms: CAL_19  and  NAM_20 
REMARK    5  A    between atoms: CAL_19  and  CAK_21 
REMARK    6  A    between atoms: CAK_21  and  CAG_22 
ROOT
ATOM      1  CAW KR2 d          -2.085   5.454  -5.165  0.00  0.00     0.376 C 
ATOM      2  OAA KR2 d          -1.761   4.070  -5.338  0.00  0.00    -0.182 OA
ATOM      3  NAR KR2 d          -3.347   5.630  -4.426  0.00  0.00     0.058 N 
ATOM      4  CAV KR2 d          -3.058   6.197  -3.098  0.00  0.00     0.267 C 
ATOM      5  CDD KR2 d          -3.788   5.514  -1.940  0.00  0.00     0.030 C 
ATOM      6  CNN KR2 d          -3.232   4.126  -1.611  0.00  0.00     0.003 C 
ATOM      7  CAT KR2 d          -3.834   3.015  -2.478  0.00  0.00     0.022 C 
ATOM      8  CAS KR2 d          -3.513   3.168  -3.969  0.00  0.00     0.158 C 
ATOM      9  NAQ KR2 d          -4.031   4.454  -4.467  0.00  0.00    -0.187 N 
ATOM     10  CAO KR2 d          -5.322   4.597  -4.743  0.00  0.00     0.180 C 
ATOM     11  OAP KR2 d          -5.956   5.797  -4.756  0.00  0.00    -0.175 OA
ATOM     12  H8  KR2 d          -3.908   6.310  -4.913  0.00  0.00     0.314 HD
ENDROOT
BRANCH  10  13
ATOM     13  CAN KR2 d          -6.175   3.353  -4.973  0.00  0.00     0.122 C 
BRANCH  13  14
ATOM     14  CAL KR2 d          -6.588   3.256  -6.441  0.00  0.00     0.195 C 
BRANCH  14  15
ATOM     15  NAM KR2 d          -5.879   4.337  -7.139  0.00  0.00    -0.074 N 
ATOM     16  H22 KR2 d          -6.388   4.590  -7.971  0.00  0.00     0.274 HD
ATOM     17  H23 KR2 d          -4.955   4.026  -7.391  0.00  0.00     0.274 HD
ATOM     18  H24 KR2 d          -5.809   5.139  -6.531  0.00  0.00     0.274 HD
ENDBRANCH  14  15
BRANCH  14  19
ATOM     19  CAK KR2 d          -8.046   3.570  -6.774  0.00  0.00     0.075 C 
BRANCH  19  20
ATOM     20  CAG KR2 d          -8.793   2.728  -7.592  0.00  0.00    -0.015 A 
ATOM     21  CAH KR2 d          -8.650   2.779  -8.970  0.00  0.00     0.055 A 
ATOM     22  CAC KR2 d          -9.533   2.125  -9.826  0.00  0.00     0.155 A 
ATOM     23  FAB KR2 d          -9.244   2.079 -11.139  0.00  0.00    -0.203 F 
ATOM     24  CAD KR2 d         -10.604   1.423  -9.280  0.00  0.00     0.157 A 
ATOM     25  FAI KR2 d         -11.677   1.085 -10.022  0.00  0.00    -0.203 F 
ATOM     26  CAE KR2 d         -10.698   1.298  -7.901  0.00  0.00     0.088 A 
ATOM     27  CAF KR2 d          -9.797   1.929  -7.051  0.00  0.00     0.125 A 
ATOM     28  FAJ KR2 d          -9.993   1.817  -5.727  0.00  0.00    -0.205 F 
ENDBRANCH  19  20
ENDBRANCH  14  19
ENDBRANCH  13  14
ENDBRANCH  10  13
BRANCH   1  29
ATOM     29  CAX KR2 d          -2.396   6.058  -6.540  0.00  0.00     0.016 A 
ATOM     30  CAY KR2 d          -2.865   7.366  -6.633  0.00  0.00     0.012 A 
ATOM     31  CBC KR2 d          -3.390   7.836  -7.834  0.00  0.00     0.001 A 
ATOM     32  CBB KR2 d          -3.445   6.997  -8.946  0.00  0.00     0.000 A 
ATOM     33  CBA KR2 d          -2.964   5.693  -8.856  0.00  0.00     0.001 A 
ATOM     34  CAZ KR2 d          -2.435   5.226  -7.656  0.00  0.00     0.012 A 
ENDBRANCH   1  29
TORSDOF 6
ENDMDL
