MODEL 1
REMARK VINA RESULT:     -11.6      0.000      0.000
REMARK  9 active torsions:
REMARK  status: ('A' for Active; 'I' for Inactive)
REMARK    1  A    between atoms: C6_6  and  O19_13 
REMARK    2  A    between atoms: C10_7  and  C13_10 
REMARK    3  A    between atoms: N12_9  and  C18_12 
REMARK    4  A    between atoms: C18_12  and  C24_18 
REMARK    5  A    between atoms: O19_13  and  C20_14 
REMARK    6  A    between atoms: C28_20  and  O36_25 
REMARK    7  A    between atoms: O36_25  and  C37_26 
REMARK    8  A    between atoms: C37_26  and  C42_28 
REMARK    9  A    between atoms: C51_36  and  O57_39 
ROOT
ATOM      1  C1  C03 d          16.034   4.762  15.715  0.00  0.00     0.038 A 
ATOM      2  C2  C03 d          14.851   4.721  14.980  0.00  0.00     0.017 A 
ATOM      3  C3  C03 d          14.949   4.771  13.433  0.00  0.00     0.005 A 
ATOM      4  C4  C03 d          16.124   4.862  12.782  0.00  0.00     0.049 A 
ATOM      5  C5  C03 d          17.336   4.905  13.547  0.00  0.00     0.067 A 
ATOM      6  C6  C03 d          17.296   4.852  15.018  0.00  0.00     0.080 A 
ATOM      7  C10 C03 d          13.794   4.727  12.587  0.00  0.00     0.031 A 
ATOM      8  C11 C03 d          14.413   4.809  11.315  0.00  0.00     0.022 A 
ATOM      9  N12 C03 d          15.848   4.897  11.399  0.00  0.00    -0.345 N 
ATOM     10  C14 C03 d          13.674   4.813   9.979  0.00  0.00     0.069 C 
ENDROOT
BRANCH   9  11
ATOM     11  C18 C03 d          16.874   5.000  10.320  0.00  0.00     0.169 C 
BRANCH  11  12
ATOM     12  C24 C03 d          17.254   6.460   9.924  0.00  0.00    -0.016 A 
ATOM     13  C27 C03 d          16.400   7.583  10.325  0.00  0.00     0.047 A 
ATOM     14  C28 C03 d          16.702   8.948   9.988  0.00  0.00     0.070 A 
ATOM     15  C29 C03 d          17.894   9.219   9.218  0.00  0.00     0.038 A 
ATOM     16  C30 C03 d          18.758   8.153   8.804  0.00  0.00     0.027 A 
ATOM     17  C31 C03 d          18.447   6.795   9.152  0.00  0.00     0.042 A 
ATOM     18 CL1  C03 d          19.562   5.623   8.602  0.00  0.00    -0.084 Cl
BRANCH  14  19
ATOM     19  O36 C03 d          15.790   9.944  10.465  0.00  0.00    -0.336 OA
BRANCH  19  20
ATOM     20  C37 C03 d          15.242  10.994   9.636  0.00  0.00     0.225 C 
ATOM     21  C38 C03 d          14.562  11.989  10.588  0.00  0.00     0.052 C 
BRANCH  20  22
ATOM     22  C42 C03 d          14.127  10.551   8.691  0.00  0.00     0.203 C 
ATOM     23  O44 C03 d          13.989  10.982   7.604  0.00  0.00    -0.646 OA
ATOM     24  O45 C03 d          13.321   9.626   9.250  0.00  0.00    -0.646 OA
ENDBRANCH  20  22
ENDBRANCH  19  20
ENDBRANCH  14  19
ENDBRANCH  11  12
ENDBRANCH   9  11
BRANCH   7  25
ATOM     25  C13 C03 d          12.334   4.624  12.997  0.00  0.00     0.110 A 
ATOM     26  N46 C03 d          11.217   5.322  12.608  0.00  0.00    -0.126 NA
ATOM     27  O47 C03 d          10.092   4.916  13.255  0.00  0.00    -0.212 OA
ATOM     28  C48 C03 d          10.411   3.915  14.117  0.00  0.00     0.116 A 
ATOM     29  C49 C03 d          11.816   3.701  13.970  0.00  0.00     0.032 A 
ATOM     30  C50 C03 d           9.614   3.183  15.005  0.00  0.00     0.077 A 
ATOM     31  C53 C03 d          12.416   2.626  14.823  0.00  0.00     0.019 A 
ATOM     32  C52 C03 d          11.623   1.879  15.724  0.00  0.00     0.038 A 
ATOM     33  C51 C03 d          10.222   2.139  15.839  0.00  0.00     0.070 A 
BRANCH  33  34
ATOM     34  O57 C03 d           9.369   1.459  16.701  0.00  0.00    -0.356 OA
ATOM     35  C58 C03 d           8.292   2.145  17.301  0.00  0.00     0.210 C 
ENDBRANCH  33  34
ENDBRANCH   7  25
BRANCH   6  36
ATOM     36  O19 C03 d          18.513   4.889  15.665  0.00  0.00    -0.255 OA
BRANCH  36  37
ATOM     37  C20 C03 d          19.007   3.817  16.428  0.00  0.00     0.530 C 
ATOM     38  F21 C03 d          18.331   3.818  17.556  0.00  0.00    -0.144 F 
ATOM     39  F22 C03 d          20.316   3.997  16.683  0.00  0.00    -0.144 F 
ATOM     40  F23 C03 d          18.802   2.674  15.785  0.00  0.00    -0.144 F 
ENDBRANCH  36  37
ENDBRANCH   6  36
TORSDOF 9
ENDMDL
MODEL 2
REMARK VINA RESULT:     -11.2      1.917      2.887
REMARK  9 active torsions:
REMARK  status: ('A' for Active; 'I' for Inactive)
REMARK    1  A    between atoms: C6_6  and  O19_13 
REMARK    2  A    between atoms: C10_7  and  C13_10 
REMARK    3  A    between atoms: N12_9  and  C18_12 
REMARK    4  A    between atoms: C18_12  and  C24_18 
REMARK    5  A    between atoms: O19_13  and  C20_14 
REMARK    6  A    between atoms: C28_20  and  O36_25 
REMARK    7  A    between atoms: O36_25  and  C37_26 
REMARK    8  A    between atoms: C37_26  and  C42_28 
REMARK    9  A    between atoms: C51_36  and  O57_39 
ROOT
ATOM      1  C1  C03 d          15.092   4.908  15.801  0.00  0.00     0.038 A 
ATOM      2  C2  C03 d          14.055   4.736  14.885  0.00  0.00     0.017 A 
ATOM      3  C3  C03 d          14.410   4.722  13.375  0.00  0.00     0.005 A 
ATOM      4  C4  C03 d          15.668   4.880  12.922  0.00  0.00     0.049 A 
ATOM      5  C5  C03 d          16.727   5.057  13.872  0.00  0.00     0.067 A 
ATOM      6  C6  C03 d          16.443   5.069  15.317  0.00  0.00     0.080 A 
ATOM      7  C10 C03 d          13.421   4.544  12.354  0.00  0.00     0.031 A 
ATOM      8  C11 C03 d          14.238   4.619  11.199  0.00  0.00     0.022 A 
ATOM      9  N12 C03 d          15.628   4.827  11.513  0.00  0.00    -0.345 N 
ATOM     10  C14 C03 d          13.737   4.500   9.762  0.00  0.00     0.069 C 
ENDROOT
BRANCH   9  11
ATOM     11  C18 C03 d          16.811   4.965  10.613  0.00  0.00     0.169 C 
BRANCH  11  12
ATOM     12  C24 C03 d          17.094   6.421  10.131  0.00  0.00    -0.016 A 
ATOM     13  C27 C03 d          16.199   7.516  10.518  0.00  0.00     0.047 A 
ATOM     14  C28 C03 d          16.411   8.877  10.102  0.00  0.00     0.070 A 
ATOM     15  C29 C03 d          17.552   9.171   9.267  0.00  0.00     0.038 A 
ATOM     16  C30 C03 d          18.454   8.132   8.865  0.00  0.00     0.027 A 
ATOM     17  C31 C03 d          18.233   6.778   9.291  0.00  0.00     0.042 A 
ATOM     18 CL1  C03 d          19.384   5.640   8.747  0.00  0.00    -0.084 Cl
BRANCH  14  19
ATOM     19  O36 C03 d          15.468   9.846  10.573  0.00  0.00    -0.336 OA
BRANCH  19  20
ATOM     20  C37 C03 d          15.045  10.996   9.804  0.00  0.00     0.225 C 
ATOM     21  C38 C03 d          14.427  11.984  10.803  0.00  0.00     0.052 C 
BRANCH  20  22
ATOM     22  C42 C03 d          13.927  10.722   8.800  0.00  0.00     0.203 C 
ATOM     23  O44 C03 d          12.793  10.633   9.101  0.00  0.00    -0.646 OA
ATOM     24  O45 C03 d          14.393  10.585   7.542  0.00  0.00    -0.646 OA
ENDBRANCH  20  22
ENDBRANCH  19  20
ENDBRANCH  14  19
ENDBRANCH  11  12
ENDBRANCH   9  11
BRANCH   7  25
ATOM     25  C13 C03 d          11.924   4.341  12.523  0.00  0.00     0.110 A 
ATOM     26  N46 C03 d          11.194   3.517  13.344  0.00  0.00    -0.126 NA
ATOM     27  O47 C03 d           9.853   3.636  13.152  0.00  0.00    -0.212 OA
ATOM     28  C48 C03 d           9.624   4.559  12.181  0.00  0.00     0.116 A 
ATOM     29  C49 C03 d          10.910   5.028  11.771  0.00  0.00     0.032 A 
ATOM     30  C50 C03 d           8.426   5.022  11.623  0.00  0.00     0.077 A 
ATOM     31  C53 C03 d          10.924   6.072  10.697  0.00  0.00     0.019 A 
ATOM     32  C52 C03 d           9.722   6.549  10.125  0.00  0.00     0.038 A 
ATOM     33  C51 C03 d           8.461   6.039  10.565  0.00  0.00     0.070 A 
BRANCH  33  34
ATOM     34  O57 C03 d           7.233   6.447  10.056  0.00  0.00    -0.356 OA
ATOM     35  C58 C03 d           6.308   7.094  10.902  0.00  0.00     0.210 C 
ENDBRANCH  33  34
ENDBRANCH   7  25
BRANCH   6  36
ATOM     36  O19 C03 d          17.527   5.236  16.153  0.00  0.00    -0.255 OA
BRANCH  36  37
ATOM     37  C20 C03 d          18.666   4.415  16.102  0.00  0.00     0.530 C 
ATOM     38  F21 C03 d          19.318   4.610  17.228  0.00  0.00    -0.144 F 
ATOM     39  F22 C03 d          19.443   4.765  15.061  0.00  0.00    -0.144 F 
ATOM     40  F23 C03 d          18.301   3.141  16.015  0.00  0.00    -0.144 F 
ENDBRANCH  36  37
ENDBRANCH   6  36
TORSDOF 9
ENDMDL
MODEL 3
REMARK VINA RESULT:      -9.6      4.275      9.721
REMARK  9 active torsions:
REMARK  status: ('A' for Active; 'I' for Inactive)
REMARK    1  A    between atoms: C6_6  and  O19_13 
REMARK    2  A    between atoms: C10_7  and  C13_10 
REMARK    3  A    between atoms: N12_9  and  C18_12 
REMARK    4  A    between atoms: C18_12  and  C24_18 
REMARK    5  A    between atoms: O19_13  and  C20_14 
REMARK    6  A    between atoms: C28_20  and  O36_25 
REMARK    7  A    between atoms: O36_25  and  C37_26 
REMARK    8  A    between atoms: C37_26  and  C42_28 
REMARK    9  A    between atoms: C51_36  and  O57_39 
ROOT
ATOM      1  C1  C03 d          12.133   5.477   9.272  0.00  0.00     0.038 A 
ATOM      2  C2  C03 d          13.492   5.630   9.541  0.00  0.00     0.017 A 
ATOM      3  C3  C03 d          13.958   5.552  11.018  0.00  0.00     0.005 A 
ATOM      4  C4  C03 d          13.104   5.353  12.040  0.00  0.00     0.049 A 
ATOM      5  C5  C03 d          11.708   5.197  11.754  0.00  0.00     0.067 A 
ATOM      6  C6  C03 d          11.217   5.255  10.367  0.00  0.00     0.080 A 
ATOM      7  C10 C03 d          15.332   5.689  11.400  0.00  0.00     0.031 A 
ATOM      8  C11 C03 d          15.215   5.554  12.806  0.00  0.00     0.022 A 
ATOM      9  N12 C03 d          13.856   5.348  13.234  0.00  0.00    -0.345 N 
ATOM     10  C14 C03 d          16.379   5.617  13.792  0.00  0.00     0.069 C 
ENDROOT
BRANCH   9  11
ATOM     11  C18 C03 d          13.292   5.163  14.604  0.00  0.00     0.169 C 
BRANCH  11  12
ATOM     12  C24 C03 d          12.342   3.935  14.754  0.00  0.00    -0.016 A 
ATOM     13  C27 C03 d          10.896   4.091  14.572  0.00  0.00     0.047 A 
ATOM     14  C28 C03 d           9.974   2.994  14.699  0.00  0.00     0.070 A 
ATOM     15  C29 C03 d          10.499   1.688  15.024  0.00  0.00     0.038 A 
ATOM     16  C30 C03 d          11.906   1.489  15.211  0.00  0.00     0.027 A 
ATOM     17  C31 C03 d          12.816   2.592  15.076  0.00  0.00     0.042 A 
ATOM     18 CL1  C03 d          14.465   2.218  15.318  0.00  0.00    -0.084 Cl
BRANCH  14  19
ATOM     19  O36 C03 d           8.591   3.288  14.472  0.00  0.00    -0.336 OA
BRANCH  19  20
ATOM     20  C37 C03 d           7.770   2.597  13.504  0.00  0.00     0.225 C 
ATOM     21  C38 C03 d           8.616   2.472  12.228  0.00  0.00     0.052 C 
BRANCH  20  22
ATOM     22  C42 C03 d           6.522   3.357  13.059  0.00  0.00     0.203 C 
ATOM     23  O44 C03 d           5.508   2.829  12.776  0.00  0.00    -0.646 OA
ATOM     24  O45 C03 d           6.723   4.689  13.019  0.00  0.00    -0.646 OA
ENDBRANCH  20  22
ENDBRANCH  19  20
ENDBRANCH  14  19
ENDBRANCH  11  12
ENDBRANCH   9  11
BRANCH   7  25
ATOM     25  C13 C03 d          16.536   5.918  10.502  0.00  0.00     0.110 A 
ATOM     26  N46 C03 d          17.480   5.061   9.991  0.00  0.00    -0.126 NA
ATOM     27  O47 C03 d          18.417   5.699   9.239  0.00  0.00    -0.212 OA
ATOM     28  C48 C03 d          18.137   7.028   9.214  0.00  0.00     0.116 A 
ATOM     29  C49 C03 d          16.951   7.197   9.993  0.00  0.00     0.032 A 
ATOM     30  C50 C03 d          18.802   8.092   8.592  0.00  0.00     0.077 A 
ATOM     31  C53 C03 d          16.430   8.596  10.114  0.00  0.00     0.019 A 
ATOM     32  C52 C03 d          17.091   9.679   9.491  0.00  0.00     0.038 A 
ATOM     33  C51 C03 d          18.281   9.457   8.729  0.00  0.00     0.070 A 
BRANCH  33  34
ATOM     34  O57 C03 d          18.997  10.462   8.089  0.00  0.00    -0.356 OA
ATOM     35  C58 C03 d          18.785  11.809   8.453  0.00  0.00     0.210 C 
ENDBRANCH  33  34
ENDBRANCH   7  25
BRANCH   6  36
ATOM     36  O19 C03 d           9.860   5.085  10.190  0.00  0.00    -0.255 OA
BRANCH  36  37
ATOM     37  C20 C03 d           8.927   6.117  10.387  0.00  0.00     0.530 C 
ATOM     38  F21 C03 d           8.821   6.281  11.689  0.00  0.00    -0.144 F 
ATOM     39  F22 C03 d           7.734   5.766   9.875  0.00  0.00    -0.144 F 
ATOM     40  F23 C03 d           9.370   7.239   9.832  0.00  0.00    -0.144 F 
ENDBRANCH  36  37
ENDBRANCH   6  36
TORSDOF 9
ENDMDL
MODEL 4
REMARK VINA RESULT:      -9.5      3.987      9.552
REMARK  9 active torsions:
REMARK  status: ('A' for Active; 'I' for Inactive)
REMARK    1  A    between atoms: C6_6  and  O19_13 
REMARK    2  A    between atoms: C10_7  and  C13_10 
REMARK    3  A    between atoms: N12_9  and  C18_12 
REMARK    4  A    between atoms: C18_12  and  C24_18 
REMARK    5  A    between atoms: O19_13  and  C20_14 
REMARK    6  A    between atoms: C28_20  and  O36_25 
REMARK    7  A    between atoms: O36_25  and  C37_26 
REMARK    8  A    between atoms: C37_26  and  C42_28 
REMARK    9  A    between atoms: C51_36  and  O57_39 
ROOT
ATOM      1  C1  C03 d          10.807   6.761   9.427  0.00  0.00     0.038 A 
ATOM      2  C2  C03 d          11.862   7.664   9.300  0.00  0.00     0.017 A 
ATOM      3  C3  C03 d          13.241   7.263   9.886  0.00  0.00     0.005 A 
ATOM      4  C4  C03 d          13.451   6.091  10.516  0.00  0.00     0.049 A 
ATOM      5  C5  C03 d          12.360   5.170  10.642  0.00  0.00     0.067 A 
ATOM      6  C6  C03 d          11.033   5.501  10.094  0.00  0.00     0.080 A 
ATOM      7  C10 C03 d          14.390   8.114   9.802  0.00  0.00     0.031 A 
ATOM      8  C11 C03 d          15.346   7.311  10.473  0.00  0.00     0.022 A 
ATOM      9  N12 C03 d          14.800   6.059  10.928  0.00  0.00    -0.345 N 
ATOM     10  C14 C03 d          16.803   7.699  10.711  0.00  0.00     0.069 C 
ENDROOT
BRANCH   9  11
ATOM     11  C18 C03 d          15.446   4.936  11.669  0.00  0.00     0.169 C 
BRANCH  11  12
ATOM     12  C24 C03 d          15.023   4.816  13.165  0.00  0.00    -0.016 A 
ATOM     13  C27 C03 d          13.606   4.700  13.526  0.00  0.00     0.047 A 
ATOM     14  C28 C03 d          13.159   4.587  14.889  0.00  0.00     0.070 A 
ATOM     15  C29 C03 d          14.149   4.593  15.941  0.00  0.00     0.038 A 
ATOM     16  C30 C03 d          15.545   4.705  15.634  0.00  0.00     0.027 A 
ATOM     17  C31 C03 d          15.978   4.812  14.268  0.00  0.00     0.042 A 
ATOM     18 CL1  C03 d          17.666   4.931  14.041  0.00  0.00    -0.084 Cl
BRANCH  14  19
ATOM     19  O36 C03 d          11.747   4.460  15.093  0.00  0.00    -0.336 OA
BRANCH  19  20
ATOM     20  C37 C03 d          10.932   3.449  14.457  0.00  0.00     0.225 C 
ATOM     21  C38 C03 d           9.521   3.596  15.044  0.00  0.00     0.052 C 
BRANCH  20  22
ATOM     22  C42 C03 d          11.328   2.009  14.778  0.00  0.00     0.203 C 
ATOM     23  O44 C03 d          11.575   1.206  13.954  0.00  0.00    -0.646 OA
ATOM     24  O45 C03 d          11.349   1.769  16.105  0.00  0.00    -0.646 OA
ENDBRANCH  20  22
ENDBRANCH  19  20
ENDBRANCH  14  19
ENDBRANCH  11  12
ENDBRANCH   9  11
BRANCH   7  25
ATOM     25  C13 C03 d          14.494   9.489   9.162  0.00  0.00     0.110 A 
ATOM     26  N46 C03 d          13.574  10.494   8.985  0.00  0.00    -0.126 NA
ATOM     27  O47 C03 d          14.089  11.568   8.329  0.00  0.00    -0.212 OA
ATOM     28  C48 C03 d          15.393  11.326   8.034  0.00  0.00     0.116 A 
ATOM     29  C49 C03 d          15.681  10.027   8.555  0.00  0.00     0.032 A 
ATOM     30  C50 C03 d          16.341  12.110   7.365  0.00  0.00     0.077 A 
ATOM     31  C53 C03 d          17.079   9.528   8.358  0.00  0.00     0.019 A 
ATOM     32  C52 C03 d          18.047  10.308   7.684  0.00  0.00     0.038 A 
ATOM     33  C51 C03 d          17.704  11.599   7.174  0.00  0.00     0.070 A 
BRANCH  33  34
ATOM     34  O57 C03 d          18.588  12.430   6.496  0.00  0.00    -0.356 OA
ATOM     35  C58 C03 d          19.126  13.558   7.152  0.00  0.00     0.210 C 
ENDBRANCH  33  34
ENDBRANCH   7  25
BRANCH   6  36
ATOM     36  O19 C03 d          10.049   4.547  10.256  0.00  0.00    -0.255 OA
BRANCH  36  37
ATOM     37  C20 C03 d           9.039   4.648  11.228  0.00  0.00     0.530 C 
ATOM     38  F21 C03 d           8.000   5.193  10.633  0.00  0.00    -0.144 F 
ATOM     39  F22 C03 d           9.448   5.435  12.239  0.00  0.00    -0.144 F 
ATOM     40  F23 C03 d           8.716   3.438  11.669  0.00  0.00    -0.144 F 
ENDBRANCH  36  37
ENDBRANCH   6  36
TORSDOF 9
ENDMDL
MODEL 5
REMARK VINA RESULT:      -9.3      4.104      9.561
REMARK  9 active torsions:
REMARK  status: ('A' for Active; 'I' for Inactive)
REMARK    1  A    between atoms: C6_6  and  O19_13 
REMARK    2  A    between atoms: C10_7  and  C13_10 
REMARK    3  A    between atoms: N12_9  and  C18_12 
REMARK    4  A    between atoms: C18_12  and  C24_18 
REMARK    5  A    between atoms: O19_13  and  C20_14 
REMARK    6  A    between atoms: C28_20  and  O36_25 
REMARK    7  A    between atoms: O36_25  and  C37_26 
REMARK    8  A    between atoms: C37_26  and  C42_28 
REMARK    9  A    between atoms: C51_36  and  O57_39 
ROOT
ATOM      1  C1  C03 d          10.663   6.774   9.634  0.00  0.00     0.038 A 
ATOM      2  C2  C03 d          11.743   7.642   9.486  0.00  0.00     0.017 A 
ATOM      3  C3  C03 d          13.148   7.140   9.911  0.00  0.00     0.005 A 
ATOM      4  C4  C03 d          13.357   5.912  10.422  0.00  0.00     0.049 A 
ATOM      5  C5  C03 d          12.239   5.026  10.571  0.00  0.00     0.067 A 
ATOM      6  C6  C03 d          10.887   5.454  10.174  0.00  0.00     0.080 A 
ATOM      7  C10 C03 d          14.324   7.950   9.793  0.00  0.00     0.031 A 
ATOM      8  C11 C03 d          15.295   7.056  10.308  0.00  0.00     0.022 A 
ATOM      9  N12 C03 d          14.733   5.792  10.707  0.00  0.00    -0.345 N 
ATOM     10  C14 C03 d          16.784   7.365  10.444  0.00  0.00     0.069 C 
ENDROOT
BRANCH   9  11
ATOM     11  C18 C03 d          15.389   4.586  11.293  0.00  0.00     0.169 C 
BRANCH  11  12
ATOM     12  C24 C03 d          15.618   4.655  12.834  0.00  0.00    -0.016 A 
ATOM     13  C27 C03 d          16.953   4.934  13.372  0.00  0.00     0.047 A 
ATOM     14  C28 C03 d          17.221   5.010  14.784  0.00  0.00     0.070 A 
ATOM     15  C29 C03 d          16.128   4.798  15.704  0.00  0.00     0.038 A 
ATOM     16  C30 C03 d          14.806   4.523  15.222  0.00  0.00     0.027 A 
ATOM     17  C31 C03 d          14.551   4.455  13.810  0.00  0.00     0.042 A 
ATOM     18 CL1  C03 d          12.934   4.127  13.372  0.00  0.00    -0.084 Cl
BRANCH  14  19
ATOM     19  O36 C03 d          18.568   5.310  15.166  0.00  0.00    -0.336 OA
BRANCH  19  20
ATOM     20  C37 C03 d          19.367   4.466  16.025  0.00  0.00     0.225 C 
ATOM     21  C38 C03 d          18.867   3.030  15.811  0.00  0.00     0.052 C 
BRANCH  20  22
ATOM     22  C42 C03 d          19.183   4.713  17.521  0.00  0.00     0.203 C 
ATOM     23  O44 C03 d          19.096   3.848  18.315  0.00  0.00    -0.646 OA
ATOM     24  O45 C03 d          19.120   6.027  17.817  0.00  0.00    -0.646 OA
ENDBRANCH  20  22
ENDBRANCH  19  20
ENDBRANCH  14  19
ENDBRANCH  11  12
ENDBRANCH   9  11
BRANCH   7  25
ATOM     25  C13 C03 d          14.435   9.369   9.260  0.00  0.00     0.110 A 
ATOM     26  N46 C03 d          13.525  10.394   9.175  0.00  0.00    -0.126 NA
ATOM     27  O47 C03 d          14.044  11.511   8.596  0.00  0.00    -0.212 OA
ATOM     28  C48 C03 d          15.341  11.278   8.264  0.00  0.00     0.116 A 
ATOM     29  C49 C03 d          15.620   9.939   8.679  0.00  0.00     0.032 A 
ATOM     30  C50 C03 d          16.289  12.101   7.644  0.00  0.00     0.077 A 
ATOM     31  C53 C03 d          17.009   9.441   8.424  0.00  0.00     0.019 A 
ATOM     32  C52 C03 d          17.977  10.261   7.799  0.00  0.00     0.038 A 
ATOM     33  C51 C03 d          17.643  11.592   7.395  0.00  0.00     0.070 A 
BRANCH  33  34
ATOM     34  O57 C03 d          18.528  12.463   6.771  0.00  0.00    -0.356 OA
ATOM     35  C58 C03 d          18.926  13.645   7.432  0.00  0.00     0.210 C 
ENDBRANCH  33  34
ENDBRANCH   7  25
BRANCH   6  36
ATOM     36  O19 C03 d           9.877   4.529  10.346  0.00  0.00    -0.255 OA
BRANCH  36  37
ATOM     37  C20 C03 d           9.092   4.462  11.509  0.00  0.00     0.530 C 
ATOM     38  F21 C03 d           9.257   3.253  12.002  0.00  0.00    -0.144 F 
ATOM     39  F22 C03 d           7.796   4.654  11.204  0.00  0.00    -0.144 F 
ATOM     40  F23 C03 d           9.511   5.362  12.390  0.00  0.00    -0.144 F 
ENDBRANCH  36  37
ENDBRANCH   6  36
TORSDOF 9
ENDMDL
MODEL 6
REMARK VINA RESULT:      -8.8      3.920      9.419
REMARK  9 active torsions:
REMARK  status: ('A' for Active; 'I' for Inactive)
REMARK    1  A    between atoms: C6_6  and  O19_13 
REMARK    2  A    between atoms: C10_7  and  C13_10 
REMARK    3  A    between atoms: N12_9  and  C18_12 
REMARK    4  A    between atoms: C18_12  and  C24_18 
REMARK    5  A    between atoms: O19_13  and  C20_14 
REMARK    6  A    between atoms: C28_20  and  O36_25 
REMARK    7  A    between atoms: O36_25  and  C37_26 
REMARK    8  A    between atoms: C37_26  and  C42_28 
REMARK    9  A    between atoms: C51_36  and  O57_39 
ROOT
ATOM      1  C1  C03 d          11.799   7.637   9.400  0.00  0.00     0.038 A 
ATOM      2  C2  C03 d          13.142   8.011   9.418  0.00  0.00     0.017 A 
ATOM      3  C3  C03 d          14.154   7.069  10.122  0.00  0.00     0.005 A 
ATOM      4  C4  C03 d          13.784   5.921  10.719  0.00  0.00     0.049 A 
ATOM      5  C5  C03 d          12.400   5.544  10.696  0.00  0.00     0.067 A 
ATOM      6  C6  C03 d          11.403   6.400  10.033  0.00  0.00     0.080 A 
ATOM      7  C10 C03 d          15.555   7.358  10.189  0.00  0.00     0.031 A 
ATOM      8  C11 C03 d          16.008   6.230  10.918  0.00  0.00     0.022 A 
ATOM      9  N12 C03 d          14.942   5.325  11.262  0.00  0.00    -0.345 N 
ATOM     10  C14 C03 d          17.458   5.969  11.317  0.00  0.00     0.069 C 
ENDROOT
BRANCH   9  11
ATOM     11  C18 C03 d          14.974   4.037  12.016  0.00  0.00     0.169 C 
BRANCH  11  12
ATOM     12  C24 C03 d          14.177   4.049  13.356  0.00  0.00    -0.016 A 
ATOM     13  C27 C03 d          12.930   3.287  13.484  0.00  0.00     0.047 A 
ATOM     14  C28 C03 d          12.155   3.263  14.695  0.00  0.00     0.070 A 
ATOM     15  C29 C03 d          12.626   4.025  15.829  0.00  0.00     0.038 A 
ATOM     16  C30 C03 d          13.839   4.784  15.750  0.00  0.00     0.027 A 
ATOM     17  C31 C03 d          14.606   4.796  14.535  0.00  0.00     0.042 A 
ATOM     18 CL1  C03 d          16.033   5.734  14.577  0.00  0.00    -0.084 Cl
BRANCH  14  19
ATOM     19  O36 C03 d          10.970   2.459  14.683  0.00  0.00    -0.336 OA
BRANCH  19  20
ATOM     20  C37 C03 d           9.818   2.739  13.856  0.00  0.00     0.225 C 
ATOM     21  C38 C03 d           9.000   3.806  14.596  0.00  0.00     0.052 C 
BRANCH  20  22
ATOM     22  C42 C03 d           8.850   1.569  13.686  0.00  0.00     0.203 C 
ATOM     23  O44 C03 d           9.017   0.697  12.913  0.00  0.00    -0.646 OA
ATOM     24  O45 C03 d           7.788   1.662  14.511  0.00  0.00    -0.646 OA
ENDBRANCH  20  22
ENDBRANCH  19  20
ENDBRANCH  14  19
ENDBRANCH  11  12
ENDBRANCH   9  11
BRANCH   7  25
ATOM     25  C13 C03 d          16.294   8.559   9.622  0.00  0.00     0.110 A 
ATOM     26  N46 C03 d          17.434   8.665   8.863  0.00  0.00    -0.126 NA
ATOM     27  O47 C03 d          17.765   9.955   8.589  0.00  0.00    -0.212 OA
ATOM     28  C48 C03 d          16.849  10.780   9.159  0.00  0.00     0.116 A 
ATOM     29  C49 C03 d          15.902   9.930   9.809  0.00  0.00     0.032 A 
ATOM     30  C50 C03 d          16.757  12.178   9.172  0.00  0.00     0.077 A 
ATOM     31  C53 C03 d          14.773  10.612  10.518  0.00  0.00     0.019 A 
ATOM     32  C52 C03 d          14.668  12.022  10.538  0.00  0.00     0.038 A 
ATOM     33  C51 C03 d          15.648  12.829   9.878  0.00  0.00     0.070 A 
BRANCH  33  34
ATOM     34  O57 C03 d          15.626  14.218   9.852  0.00  0.00    -0.356 OA
ATOM     35  C58 C03 d          14.393  14.898   9.954  0.00  0.00     0.210 C 
ENDBRANCH  33  34
ENDBRANCH   7  25
BRANCH   6  36
ATOM     36  O19 C03 d          10.099   5.951  10.055  0.00  0.00    -0.255 OA
BRANCH  36  37
ATOM     37  C20 C03 d           9.363   5.793  11.242  0.00  0.00     0.530 C 
ATOM     38  F21 C03 d           8.950   4.544  11.262  0.00  0.00    -0.144 F 
ATOM     39  F22 C03 d           8.304   6.622  11.243  0.00  0.00    -0.144 F 
ATOM     40  F23 C03 d          10.145   6.020  12.291  0.00  0.00    -0.144 F 
ENDBRANCH  36  37
ENDBRANCH   6  36
TORSDOF 9
ENDMDL
MODEL 7
REMARK VINA RESULT:      -8.8      4.075      9.327
REMARK  9 active torsions:
REMARK  status: ('A' for Active; 'I' for Inactive)
REMARK    1  A    between atoms: C6_6  and  O19_13 
REMARK    2  A    between atoms: C10_7  and  C13_10 
REMARK    3  A    between atoms: N12_9  and  C18_12 
REMARK    4  A    between atoms: C18_12  and  C24_18 
REMARK    5  A    between atoms: O19_13  and  C20_14 
REMARK    6  A    between atoms: C28_20  and  O36_25 
REMARK    7  A    between atoms: O36_25  and  C37_26 
REMARK    8  A    between atoms: C37_26  and  C42_28 
REMARK    9  A    between atoms: C51_36  and  O57_39 
ROOT
ATOM      1  C1  C03 d          11.664   7.807   9.444  0.00  0.00     0.038 A 
ATOM      2  C2  C03 d          12.912   8.413   9.308  0.00  0.00     0.017 A 
ATOM      3  C3  C03 d          14.164   7.616   9.760  0.00  0.00     0.005 A 
ATOM      4  C4  C03 d          14.088   6.379  10.285  0.00  0.00     0.049 A 
ATOM      5  C5  C03 d          12.799   5.765  10.422  0.00  0.00     0.067 A 
ATOM      6  C6  C03 d          11.582   6.476   9.999  0.00  0.00     0.080 A 
ATOM      7  C10 C03 d          15.491   8.145   9.655  0.00  0.00     0.031 A 
ATOM      8  C11 C03 d          16.233   7.064  10.193  0.00  0.00     0.022 A 
ATOM      9  N12 C03 d          15.399   5.961  10.593  0.00  0.00    -0.345 N 
ATOM     10  C14 C03 d          17.752   7.037  10.352  0.00  0.00     0.069 C 
ENDROOT
BRANCH   9  11
ATOM     11  C18 C03 d          15.763   4.646  11.200  0.00  0.00     0.169 C 
BRANCH  11  12
ATOM     12  C24 C03 d          15.830   4.647  12.758  0.00  0.00    -0.016 A 
ATOM     13  C27 C03 d          17.084   4.973  13.445  0.00  0.00     0.047 A 
ATOM     14  C28 C03 d          17.204   4.989  14.879  0.00  0.00     0.070 A 
ATOM     15  C29 C03 d          16.039   4.666  15.670  0.00  0.00     0.038 A 
ATOM     16  C30 C03 d          14.792   4.342  15.041  0.00  0.00     0.027 A 
ATOM     17  C31 C03 d          14.685   4.335  13.608  0.00  0.00     0.042 A 
ATOM     18 CL1  C03 d          13.144   3.938  12.989  0.00  0.00    -0.084 Cl
BRANCH  14  19
ATOM     19  O36 C03 d          18.484   5.345  15.412  0.00  0.00    -0.336 OA
BRANCH  19  20
ATOM     20  C37 C03 d          19.219   4.528  16.351  0.00  0.00     0.225 C 
ATOM     21  C38 C03 d          18.868   3.069  16.025  0.00  0.00     0.052 C 
BRANCH  20  22
ATOM     22  C42 C03 d          18.807   4.699  17.812  0.00  0.00     0.203 C 
ATOM     23  O44 C03 d          18.126   3.932  18.388  0.00  0.00    -0.646 OA
ATOM     24  O45 C03 d          19.305   5.830  18.353  0.00  0.00    -0.646 OA
ENDBRANCH  20  22
ENDBRANCH  19  20
ENDBRANCH  14  19
ENDBRANCH  11  12
ENDBRANCH   9  11
BRANCH   7  25
ATOM     25  C13 C03 d          15.922   9.497   9.111  0.00  0.00     0.110 A 
ATOM     26  N46 C03 d          16.770   9.852   8.091  0.00  0.00    -0.126 NA
ATOM     27  O47 C03 d          16.894  11.200   7.954  0.00  0.00    -0.212 OA
ATOM     28  C48 C03 d          16.124  11.814   8.890  0.00  0.00     0.116 A 
ATOM     29  C49 C03 d          15.491  10.767   9.629  0.00  0.00     0.032 A 
ATOM     30  C50 C03 d          15.923  13.173   9.163  0.00  0.00     0.077 A 
ATOM     31  C53 C03 d          14.572  11.195  10.732  0.00  0.00     0.019 A 
ATOM     32  C52 C03 d          14.359  12.564  11.017  0.00  0.00     0.038 A 
ATOM     33  C51 C03 d          15.025  13.572  10.253  0.00  0.00     0.070 A 
BRANCH  33  34
ATOM     34  O57 C03 d          14.879  14.938  10.467  0.00  0.00    -0.356 OA
ATOM     35  C58 C03 d          15.502  15.538  11.582  0.00  0.00     0.210 C 
ENDBRANCH  33  34
ENDBRANCH   7  25
BRANCH   6  36
ATOM     36  O19 C03 d          10.390   5.801  10.162  0.00  0.00    -0.255 OA
BRANCH  36  37
ATOM     37  C20 C03 d           9.849   5.497  11.423  0.00  0.00     0.530 C 
ATOM     38  F21 C03 d           9.901   4.188  11.546  0.00  0.00    -0.144 F 
ATOM     39  F22 C03 d           8.570   5.909  11.488  0.00  0.00    -0.144 F 
ATOM     40  F23 C03 d          10.579   6.064  12.376  0.00  0.00    -0.144 F 
ENDBRANCH  36  37
ENDBRANCH   6  36
TORSDOF 9
ENDMDL
MODEL 8
REMARK VINA RESULT:      -8.7      3.636      4.979
REMARK  9 active torsions:
REMARK  status: ('A' for Active; 'I' for Inactive)
REMARK    1  A    between atoms: C6_6  and  O19_13 
REMARK    2  A    between atoms: C10_7  and  C13_10 
REMARK    3  A    between atoms: N12_9  and  C18_12 
REMARK    4  A    between atoms: C18_12  and  C24_18 
REMARK    5  A    between atoms: O19_13  and  C20_14 
REMARK    6  A    between atoms: C28_20  and  O36_25 
REMARK    7  A    between atoms: O36_25  and  C37_26 
REMARK    8  A    between atoms: C37_26  and  C42_28 
REMARK    9  A    between atoms: C51_36  and  O57_39 
ROOT
ATOM      1  C1  C03 d          11.578   5.460  10.874  0.00  0.00     0.038 A 
ATOM      2  C2  C03 d          12.262   5.210  12.063  0.00  0.00     0.017 A 
ATOM      3  C3  C03 d          13.812   5.151  12.016  0.00  0.00     0.005 A 
ATOM      4  C4  C03 d          14.511   5.319  10.879  0.00  0.00     0.049 A 
ATOM      5  C5  C03 d          13.799   5.575   9.661  0.00  0.00     0.067 A 
ATOM      6  C6  C03 d          12.329   5.650   9.655  0.00  0.00     0.080 A 
ATOM      7  C10 C03 d          14.608   4.908  13.182  0.00  0.00     0.031 A 
ATOM      8  C11 C03 d          15.904   4.943  12.611  0.00  0.00     0.022 A 
ATOM      9  N12 C03 d          15.881   5.192  11.193  0.00  0.00    -0.345 N 
ATOM     10  C14 C03 d          17.206   4.739  13.381  0.00  0.00     0.069 C 
ENDROOT
BRANCH   9  11
ATOM     11  C18 C03 d          17.002   5.304  10.214  0.00  0.00     0.169 C 
BRANCH  11  12
ATOM     12  C24 C03 d          17.346   6.764   9.787  0.00  0.00    -0.016 A 
ATOM     13  C27 C03 d          16.509   7.883  10.232  0.00  0.00     0.047 A 
ATOM     14  C28 C03 d          16.779   9.249   9.868  0.00  0.00     0.070 A 
ATOM     15  C29 C03 d          17.921   9.524   9.027  0.00  0.00     0.038 A 
ATOM     16  C30 C03 d          18.768   8.461   8.569  0.00  0.00     0.027 A 
ATOM     17  C31 C03 d          18.489   7.102   8.943  0.00  0.00     0.042 A 
ATOM     18 CL1  C03 d          19.578   5.936   8.336  0.00  0.00    -0.084 Cl
BRANCH  14  19
ATOM     19  O36 C03 d          15.890  10.240  10.393  0.00  0.00    -0.336 OA
BRANCH  19  20
ATOM     20  C37 C03 d          15.207  11.219   9.577  0.00  0.00     0.225 C 
ATOM     21  C38 C03 d          14.353  12.063  10.533  0.00  0.00     0.052 C 
BRANCH  20  22
ATOM     22  C42 C03 d          14.203  10.640   8.582  0.00  0.00     0.203 C 
ATOM     23  O44 C03 d          14.259  10.825   7.421  0.00  0.00    -0.646 OA
ATOM     24  O45 C03 d          13.248   9.907   9.190  0.00  0.00    -0.646 OA
ENDBRANCH  20  22
ENDBRANCH  19  20
ENDBRANCH  14  19
ENDBRANCH  11  12
ENDBRANCH   9  11
BRANCH   7  25
ATOM     25  C13 C03 d          14.136   4.679  14.609  0.00  0.00     0.110 A 
ATOM     26  N46 C03 d          14.528   5.224  15.807  0.00  0.00    -0.126 NA
ATOM     27  O47 C03 d          13.848   4.710  16.867  0.00  0.00    -0.212 OA
ATOM     28  C48 C03 d          12.958   3.787  16.418  0.00  0.00     0.116 A 
ATOM     29  C49 C03 d          13.109   3.751  14.997  0.00  0.00     0.032 A 
ATOM     30  C50 C03 d          12.045   2.983  17.111  0.00  0.00     0.077 A 
ATOM     31  C53 C03 d          12.219   2.799  14.259  0.00  0.00     0.019 A 
ATOM     32  C52 C03 d          11.293   1.981  14.946  0.00  0.00     0.038 A 
ATOM     33  C51 C03 d          11.188   2.049  16.371  0.00  0.00     0.070 A 
BRANCH  33  34
ATOM     34  O57 C03 d          10.310   1.280  17.127  0.00  0.00    -0.356 OA
ATOM     35  C58 C03 d           8.949   1.645  17.199  0.00  0.00     0.210 C 
ENDBRANCH  33  34
ENDBRANCH   7  25
BRANCH   6  36
ATOM     36  O19 C03 d          11.734   5.909   8.437  0.00  0.00    -0.255 OA
BRANCH  36  37
ATOM     37  C20 C03 d          10.733   5.092   7.885  0.00  0.00     0.530 C 
ATOM     38  F21 C03 d          11.032   3.855   8.221  0.00  0.00    -0.144 F 
ATOM     39  F22 C03 d          10.727   5.209   6.545  0.00  0.00    -0.144 F 
ATOM     40  F23 C03 d           9.552   5.418   8.395  0.00  0.00    -0.144 F 
ENDBRANCH  36  37
ENDBRANCH   6  36
TORSDOF 9
ENDMDL
