MODEL 1
REMARK VINA RESULT:     -10.4      0.000      0.000
REMARK  2 active torsions:
REMARK  status: ('A' for Active; 'I' for Inactive)
REMARK    1  A    between atoms: CG_8  and  CA_2 
REMARK    2  A    between atoms: NM_14  and  CG_8 
ROOT
ATOM      1  CG  MOL d          -7.947 -27.522 -13.965  0.00  0.00     0.154 C 
ATOM      2  CH  MOL d          -6.803 -26.684 -14.712  0.00  0.00     0.044 C 
ATOM      3  CI  MOL d          -7.105 -25.207 -14.511  0.00  0.00     0.003 C 
ATOM      4  CJ  MOL d          -6.899 -24.806 -13.034  0.00  0.00     0.000 C 
ATOM      5  CK  MOL d          -7.749 -25.704 -12.113  0.00  0.00     0.003 C 
ATOM      6  CL  MOL d          -7.579 -27.189 -12.464  0.00  0.00     0.044 C 
ENDROOT
BRANCH   1   7
ATOM      7  NM  MOL d          -7.632 -29.052 -14.118  0.00  0.00    -0.058 N 
ATOM      8  CN  MOL d          -8.850 -29.932 -14.529  0.00  0.00     0.236 C 
ATOM      9  CO  MOL d          -8.483 -31.421 -14.651  0.00  0.00     0.028 C 
ATOM     10  CP  MOL d          -7.301 -31.672 -15.587  0.00  0.00     0.003 C 
ATOM     11  CQ  MOL d          -6.104 -30.826 -15.106  0.00  0.00     0.028 C 
ATOM     12  CR  MOL d          -6.424 -29.351 -15.021  0.00  0.00     0.236 C 
ATOM     13  H18 MOL d          -7.371 -29.360 -13.195  0.00  0.00     0.281 HD
ENDBRANCH   1   7
BRANCH   1  14
ATOM     14  CA  MOL d          -9.436 -27.148 -14.425  0.00  0.00    -0.022 A 
ATOM     15  CF  MOL d          -9.716 -26.739 -15.793  0.00  0.00     0.010 A 
ATOM     16  CE  MOL d         -11.030 -26.422 -16.238  0.00  0.00     0.001 A 
ATOM     17  CD  MOL d         -12.114 -26.498 -15.383  0.00  0.00     0.000 A 
ATOM     18  CC  MOL d         -11.865 -26.897 -14.008  0.00  0.00     0.001 A 
ATOM     19  CB  MOL d         -10.543 -27.218 -13.539  0.00  0.00     0.010 A 
ENDBRANCH   1  14
TORSDOF 2
ENDMDL
MODEL 2
REMARK VINA RESULT:     -10.0      0.820      3.905
REMARK  2 active torsions:
REMARK  status: ('A' for Active; 'I' for Inactive)
REMARK    1  A    between atoms: CG_8  and  CA_2 
REMARK    2  A    between atoms: NM_14  and  CG_8 
ROOT
ATOM      1  CG  MOL d          -9.348 -28.085 -14.873  0.00  0.00     0.154 C 
ATOM      2  CH  MOL d         -10.660 -28.476 -14.040  0.00  0.00     0.044 C 
ATOM      3  CI  MOL d         -11.434 -27.195 -13.767  0.00  0.00     0.003 C 
ATOM      4  CJ  MOL d         -12.028 -26.629 -15.075  0.00  0.00     0.000 C 
ATOM      5  CK  MOL d         -10.915 -26.425 -16.122  0.00  0.00     0.003 C 
ATOM      6  CL  MOL d         -10.020 -27.667 -16.242  0.00  0.00     0.044 C 
ENDROOT
BRANCH   1   7
ATOM      7  NM  MOL d          -8.554 -29.398 -15.208  0.00  0.00    -0.058 N 
ATOM      8  CN  MOL d          -7.014 -29.302 -14.997  0.00  0.00     0.236 C 
ATOM      9  CO  MOL d          -6.291 -30.612 -15.354  0.00  0.00     0.028 C 
ATOM     10  CP  MOL d          -6.858 -31.828 -14.621  0.00  0.00     0.003 C 
ATOM     11  CQ  MOL d          -8.371 -31.914 -14.907  0.00  0.00     0.028 C 
ATOM     12  CR  MOL d          -9.114 -30.655 -14.523  0.00  0.00     0.236 C 
ATOM     13  H18 MOL d          -8.687 -29.539 -16.197  0.00  0.00     0.281 HD
ENDBRANCH   1   7
BRANCH   1  14
ATOM     14  CA  MOL d          -8.434 -26.973 -14.167  0.00  0.00    -0.022 A 
ATOM     15  CF  MOL d          -8.149 -27.033 -12.742  0.00  0.00     0.010 A 
ATOM     16  CE  MOL d          -7.323 -26.074 -12.091  0.00  0.00     0.001 A 
ATOM     17  CD  MOL d          -6.741 -25.035 -12.793  0.00  0.00     0.000 A 
ATOM     18  CC  MOL d          -7.013 -24.944 -14.217  0.00  0.00     0.001 A 
ATOM     19  CB  MOL d          -7.848 -25.902 -14.893  0.00  0.00     0.010 A 
ENDBRANCH   1  14
TORSDOF 2
ENDMDL
MODEL 3
REMARK VINA RESULT:      -9.1      1.193      4.739
REMARK  2 active torsions:
REMARK  status: ('A' for Active; 'I' for Inactive)
REMARK    1  A    between atoms: CG_8  and  CA_2 
REMARK    2  A    between atoms: NM_14  and  CG_8 
ROOT
ATOM      1  CG  MOL d          -9.667 -27.248 -14.503  0.00  0.00     0.154 C 
ATOM      2  CH  MOL d         -10.068 -26.600 -15.914  0.00  0.00     0.044 C 
ATOM      3  CI  MOL d         -11.142 -27.478 -16.538  0.00  0.00     0.003 C 
ATOM      4  CJ  MOL d         -12.460 -27.376 -15.739  0.00  0.00     0.000 C 
ATOM      5  CK  MOL d         -12.214 -27.723 -14.257  0.00  0.00     0.003 C 
ATOM      6  CL  MOL d         -10.999 -26.969 -13.698  0.00  0.00     0.044 C 
ENDROOT
BRANCH   1   7
ATOM      7  NM  MOL d          -8.592 -26.333 -13.817  0.00  0.00    -0.058 N 
ATOM      8  CN  MOL d          -7.825 -27.000 -12.637  0.00  0.00     0.236 C 
ATOM      9  CO  MOL d          -6.796 -26.052 -11.996  0.00  0.00     0.028 C 
ATOM     10  CP  MOL d          -5.813 -25.462 -13.008  0.00  0.00     0.003 C 
ATOM     11  CQ  MOL d          -6.617 -24.764 -14.124  0.00  0.00     0.028 C 
ATOM     12  CR  MOL d          -7.605 -25.686 -14.802  0.00  0.00     0.236 C 
ATOM     13  H18 MOL d          -9.115 -25.574 -13.409  0.00  0.00     0.281 HD
ENDBRANCH   1   7
BRANCH   1  14
ATOM     14  CA  MOL d          -9.207 -28.780 -14.597  0.00  0.00    -0.022 A 
ATOM     15  CF  MOL d          -7.851 -29.132 -14.990  0.00  0.00     0.010 A 
ATOM     16  CE  MOL d          -7.407 -30.483 -15.060  0.00  0.00     0.001 A 
ATOM     17  CD  MOL d          -8.250 -31.532 -14.746  0.00  0.00     0.000 A 
ATOM     18  CC  MOL d          -9.613 -31.213 -14.356  0.00  0.00     0.001 A 
ATOM     19  CB  MOL d         -10.082 -29.854 -14.282  0.00  0.00     0.010 A 
ENDBRANCH   1  14
TORSDOF 2
ENDMDL
MODEL 4
REMARK VINA RESULT:      -8.5      1.149      3.867
REMARK  2 active torsions:
REMARK  status: ('A' for Active; 'I' for Inactive)
REMARK    1  A    between atoms: CG_8  and  CA_2 
REMARK    2  A    between atoms: NM_14  and  CG_8 
ROOT
ATOM      1  CG  MOL d          -9.722 -28.287 -14.381  0.00  0.00     0.154 C 
ATOM      2  CH  MOL d         -11.157 -28.023 -13.716  0.00  0.00     0.044 C 
ATOM      3  CI  MOL d         -11.544 -26.581 -14.008  0.00  0.00     0.003 C 
ATOM      4  CJ  MOL d         -11.835 -26.390 -15.512  0.00  0.00     0.000 C 
ATOM      5  CK  MOL d         -10.627 -26.849 -16.353  0.00  0.00     0.003 C 
ATOM      6  CL  MOL d         -10.126 -28.231 -15.909  0.00  0.00     0.044 C 
ENDROOT
BRANCH   1   7
ATOM      7  NM  MOL d          -9.320 -29.785 -14.134  0.00  0.00    -0.058 N 
ATOM      8  CN  MOL d         -10.510 -30.789 -14.142  0.00  0.00     0.236 C 
ATOM      9  CO  MOL d         -10.057 -32.236 -13.881  0.00  0.00     0.028 C 
ATOM     10  CP  MOL d          -8.957 -32.701 -14.835  0.00  0.00     0.003 C 
ATOM     11  CQ  MOL d          -7.779 -31.709 -14.748  0.00  0.00     0.028 C 
ATOM     12  CR  MOL d          -8.188 -30.284 -15.045  0.00  0.00     0.236 C 
ATOM     13  H18 MOL d          -8.952 -29.805 -13.196  0.00  0.00     0.281 HD
ENDBRANCH   1   7
BRANCH   1  14
ATOM     14  CA  MOL d          -8.587 -27.256 -13.914  0.00  0.00    -0.022 A 
ATOM     15  CF  MOL d          -8.752 -26.456 -12.710  0.00  0.00     0.010 A 
ATOM     16  CE  MOL d          -7.753 -25.549 -12.258  0.00  0.00     0.001 A 
ATOM     17  CD  MOL d          -6.562 -25.393 -12.943  0.00  0.00     0.000 A 
ATOM     18  CC  MOL d          -6.371 -26.175 -14.153  0.00  0.00     0.001 A 
ATOM     19  CB  MOL d          -7.371 -27.094 -14.629  0.00  0.00     0.010 A 
ENDBRANCH   1  14
TORSDOF 2
ENDMDL
MODEL 5
REMARK VINA RESULT:      -7.7      1.454      4.951
REMARK  2 active torsions:
REMARK  status: ('A' for Active; 'I' for Inactive)
REMARK    1  A    between atoms: CG_8  and  CA_2 
REMARK    2  A    between atoms: NM_14  and  CG_8 
ROOT
ATOM      1  CG  MOL d          -8.664 -29.338 -14.777  0.00  0.00     0.154 C 
ATOM      2  CH  MOL d          -7.889 -30.173 -15.905  0.00  0.00     0.044 C 
ATOM      3  CI  MOL d          -6.744 -30.912 -15.229  0.00  0.00     0.003 C 
ATOM      4  CJ  MOL d          -7.284 -32.025 -14.305  0.00  0.00     0.000 C 
ATOM      5  CK  MOL d          -8.278 -31.436 -13.285  0.00  0.00     0.003 C 
ATOM      6  CL  MOL d          -9.314 -30.530 -13.967  0.00  0.00     0.044 C 
ENDROOT
BRANCH   1   7
ATOM      7  NM  MOL d          -9.881 -28.602 -15.442  0.00  0.00    -0.058 N 
ATOM      8  CN  MOL d         -11.263 -28.910 -14.793  0.00  0.00     0.236 C 
ATOM      9  CO  MOL d         -12.417 -28.172 -15.495  0.00  0.00     0.028 C 
ATOM     10  CP  MOL d         -12.193 -26.663 -15.590  0.00  0.00     0.003 C 
ATOM     11  CQ  MOL d         -10.842 -26.409 -16.290  0.00  0.00     0.028 C 
ATOM     12  CR  MOL d          -9.683 -27.086 -15.594  0.00  0.00     0.236 C 
ATOM     13  H18 MOL d          -9.930 -28.971 -16.378  0.00  0.00     0.281 HD
ENDBRANCH   1   7
BRANCH   1  14
ATOM     14  CA  MOL d          -7.724 -28.346 -13.939  0.00  0.00    -0.022 A 
ATOM     15  CF  MOL d          -6.356 -28.080 -14.357  0.00  0.00     0.010 A 
ATOM     16  CE  MOL d          -5.505 -27.187 -13.646  0.00  0.00     0.001 A 
ATOM     17  CD  MOL d          -5.947 -26.518 -12.520  0.00  0.00     0.000 A 
ATOM     18  CC  MOL d          -7.307 -26.769 -12.074  0.00  0.00     0.001 A 
ATOM     19  CB  MOL d          -8.181 -27.671 -12.776  0.00  0.00     0.010 A 
ENDBRANCH   1  14
TORSDOF 2
ENDMDL
MODEL 6
REMARK VINA RESULT:      -7.6      1.313      4.524
REMARK  2 active torsions:
REMARK  status: ('A' for Active; 'I' for Inactive)
REMARK    1  A    between atoms: CG_8  and  CA_2 
REMARK    2  A    between atoms: NM_14  and  CG_8 
ROOT
ATOM      1  CG  MOL d          -8.274 -29.106 -14.079  0.00  0.00     0.154 C 
ATOM      2  CH  MOL d          -8.436 -30.389 -13.131  0.00  0.00     0.044 C 
ATOM      3  CI  MOL d          -9.059 -31.502 -13.959  0.00  0.00     0.003 C 
ATOM      4  CJ  MOL d          -8.066 -32.004 -15.029  0.00  0.00     0.000 C 
ATOM      5  CK  MOL d          -7.582 -30.830 -15.903  0.00  0.00     0.003 C 
ATOM      6  CL  MOL d          -7.139 -29.636 -15.044  0.00  0.00     0.044 C 
ENDROOT
BRANCH   1   7
ATOM      7  NM  MOL d          -7.589 -27.957 -13.258  0.00  0.00    -0.058 N 
ATOM      8  CN  MOL d          -6.238 -27.451 -13.845  0.00  0.00     0.236 C 
ATOM      9  CO  MOL d          -5.609 -26.336 -12.992  0.00  0.00     0.028 C 
ATOM     10  CP  MOL d          -6.557 -25.163 -12.745  0.00  0.00     0.003 C 
ATOM     11  CQ  MOL d          -7.855 -25.705 -12.111  0.00  0.00     0.028 C 
ATOM     12  CR  MOL d          -8.519 -26.772 -12.952  0.00  0.00     0.236 C 
ATOM     13  H18 MOL d          -7.363 -28.370 -12.367  0.00  0.00     0.281 HD
ENDBRANCH   1   7
BRANCH   1  14
ATOM     14  CA  MOL d          -9.636 -28.638 -14.782  0.00  0.00    -0.022 A 
ATOM     15  CF  MOL d         -10.927 -29.096 -14.291  0.00  0.00     0.010 A 
ATOM     16  CE  MOL d         -12.155 -28.680 -14.880  0.00  0.00     0.001 A 
ATOM     17  CD  MOL d         -12.176 -27.805 -15.951  0.00  0.00     0.000 A 
ATOM     18  CC  MOL d         -10.902 -27.337 -16.468  0.00  0.00     0.001 A 
ATOM     19  CB  MOL d          -9.651 -27.748 -15.888  0.00  0.00     0.010 A 
ENDBRANCH   1  14
TORSDOF 2
ENDMDL
