MODEL 1
REMARK VINA RESULT:     -11.2      0.000      0.000
REMARK  10 active torsions:
REMARK  status: ('A' for Active; 'I' for Inactive)
REMARK    1  A    between atoms: C1_1  and  C7_7 
REMARK    2  A    between atoms: C3_3  and  O1_8 
REMARK    3  A    between atoms: C4_4  and  O2_9 
REMARK    4  A    between atoms: O3_10  and  C5_5 
REMARK    5  A    between atoms: O1_8  and  P1_13 
REMARK    6  A    between atoms: C8_17  and  O3_10 
REMARK    7  A    between atoms: C8_17  and  C9_18 
REMARK    8  A    between atoms: C8_17  and  C10_19 
REMARK    9  A    between atoms: O14_26  and  C8_17 
REMARK   10  A    between atoms: P2_22  and  O14_26 
ROOT
ATOM      1  C1  GG9 d          56.700  11.920  28.000  0.00  0.00     0.020 C 
ATOM      2  C2  GG9 d          55.537  11.128  28.261  0.00  0.00     0.022 C 
ATOM      3  C3  GG9 d          55.667   9.839  29.070  0.00  0.00     0.190 C 
ATOM      4  C4  GG9 d          56.973   9.828  29.984  0.00  0.00     0.180 C 
ATOM      5  C5  GG9 d          58.229  10.088  29.102  0.00  0.00     0.162 C 
ATOM      6  C6  GG9 d          58.068  11.542  28.507  0.00  0.00     0.080 C 
ENDROOT
BRANCH   5   7
ATOM      7  O3  GG9 d          59.403  10.018  29.920  0.00  0.00    -0.334 OA
BRANCH   7   8
ATOM      8  C8  GG9 d          60.426   9.004  29.756  0.00  0.00     0.326 C 
BRANCH   8   9
ATOM      9  C9  GG9 d          59.961   7.480  29.600  0.00  0.00     0.427 C 
ATOM     10  F1  GG9 d          58.960   7.328  28.804  0.00  0.00    -0.208 F 
ATOM     11  F2  GG9 d          60.968   6.696  29.273  0.00  0.00    -0.208 F 
ENDBRANCH   8   9
BRANCH   8  12
ATOM     12  C10 GG9 d          61.340   9.082  30.954  0.00  0.00     0.245 C 
ATOM     13  O9  GG9 d          62.047  10.144  30.895  0.00  0.00    -0.644 OA
ATOM     14  O10 GG9 d          61.386   8.253  31.883  0.00  0.00    -0.644 OA
ENDBRANCH   8  12
BRANCH   8  15
ATOM     15  O14 GG9 d          61.280   9.350  28.589  0.00  0.00    -0.228 OA
BRANCH  15  16
ATOM     16  P2  GG9 d          61.053   9.526  26.967  0.00  0.00     0.425 P 
ATOM     17  O11 GG9 d          59.680   8.917  26.610  0.00  0.00    -0.617 OA
ATOM     18  O12 GG9 d          62.178   8.739  26.360  0.00  0.00    -0.617 OA
ATOM     19  O13 GG9 d          61.094  11.022  26.570  0.00  0.00    -0.617 OA
ENDBRANCH  15  16
ENDBRANCH   8  15
ENDBRANCH   7   8
ENDBRANCH   5   7
BRANCH   4  20
ATOM     20  O2  GG9 d          57.013   8.552  30.641  0.00  0.00    -0.390 OA
ATOM     21  H7  GG9 d          56.132   8.202  30.704  0.00  0.00     0.210 HD
ENDBRANCH   4  20
BRANCH   3  22
ATOM     22  O1  GG9 d          55.609   8.638  28.081  0.00  0.00    -0.271 OA
BRANCH  22  23
ATOM     23  P1  GG9 d          54.243   7.744  27.779  0.00  0.00     0.422 P 
ATOM     24  O6  GG9 d          53.602   7.480  29.145  0.00  0.00    -0.617 OA
ATOM     25  O7  GG9 d          54.756   6.430  27.051  0.00  0.00    -0.617 OA
ATOM     26  O8  GG9 d          53.434   8.740  26.910  0.00  0.00    -0.617 OA
ENDBRANCH  22  23
ENDBRANCH   3  22
BRANCH   1  27
ATOM     27  C7  GG9 d          56.544  13.187  27.215  0.00  0.00     0.205 C 
ATOM     28  O4  GG9 d          55.715  13.205  26.324  0.00  0.00    -0.644 OA
ATOM     29  O5  GG9 d          57.231  14.112  27.539  0.00  0.00    -0.644 OA
ENDBRANCH   1  27
TORSDOF 10
ENDMDL
