MODEL 1
REMARK VINA RESULT:      -9.6      0.000      0.000
REMARK  9 active torsions:
REMARK  status: ('A' for Active; 'I' for Inactive)
REMARK    1  A    between atoms: C2_2  and  C6_6 
REMARK    2  A    between atoms: C3_3  and  O20_16 
REMARK    3  A    between atoms: C5_5  and  C9_9 
REMARK    4  A    between atoms: O20_16  and  C21_17 
REMARK    5  A    between atoms: C21_17  and  C22_18 
REMARK    6  A    between atoms: N29_21  and  C30_22 
REMARK    7  A    between atoms: N33_25  and  S46_28 
REMARK    8  A    between atoms: S46_28  and  C49_31 
REMARK    9  A    between atoms: C49_31  and  C50_32 
ROOT
ATOM      1  C9  MOL d          46.056  12.018   1.212  0.00  0.00    -0.015 A 
ATOM      2  C10 MOL d          47.382  11.453   1.406  0.00  0.00     0.042 A 
ATOM      3  C11 MOL d          47.596  10.073   1.092  0.00  0.00     0.029 A 
ATOM      4  C12 MOL d          46.502   9.258   0.569  0.00  0.00     0.029 A 
ATOM      5  C13 MOL d          45.177   9.814   0.358  0.00  0.00     0.003 A 
ATOM      6  C14 MOL d          44.979  11.202   0.663  0.00  0.00     0.013 A 
ATOM      7  N29 MOL d          48.868   9.650   1.321  0.00  0.00    -0.385 N 
ATOM      8  H7  MOL d          49.641  10.319   1.200  0.00  0.00     0.160 HD
ENDROOT
BRANCH   7   9
ATOM      9  C30 MOL d          49.176   8.311   1.723  0.00  0.00     0.084 C 
ATOM     10  C31 MOL d          50.646   8.047   1.397  0.00  0.00     0.045 C 
ATOM     11  C32 MOL d          51.150   6.725   1.927  0.00  0.00     0.137 C 
ATOM     12  N33 MOL d          50.767   6.649   3.338  0.00  0.00    -0.310 N 
ATOM     13  C34 MOL d          49.373   6.815   3.757  0.00  0.00     0.137 C 
ATOM     14  C35 MOL d          48.872   8.126   3.209  0.00  0.00     0.045 C 
BRANCH  12  15
ATOM     15  S46 MOL d          51.754   5.770   4.420  0.00  0.00     0.232 S 
ATOM     16  O47 MOL d          52.522   6.760   5.139  0.00  0.00    -0.205 OA
ATOM     17  O48 MOL d          52.437   4.771   3.618  0.00  0.00    -0.205 OA
BRANCH  15  18
ATOM     18  C49 MOL d          50.529   5.107   5.570  0.00  0.00     0.201 C 
BRANCH  18  19
ATOM     19  C50 MOL d          50.887   3.688   5.891  0.00  0.00    -0.043 A 
ATOM     20  C53 MOL d          50.076   2.661   5.269  0.00  0.00     0.008 A 
ATOM     21  C54 MOL d          50.473   1.284   5.475  0.00  0.00     0.001 A 
ATOM     22  C55 MOL d          51.627   0.981   6.319  0.00  0.00     0.000 A 
ATOM     23  C56 MOL d          52.437   2.022   6.924  0.00  0.00     0.001 A 
ATOM     24  C57 MOL d          52.064   3.412   6.721  0.00  0.00     0.008 A 
ENDBRANCH  18  19
ENDBRANCH  15  18
ENDBRANCH  12  15
ENDBRANCH   7   9
BRANCH   1  25
ATOM     25  C5  MOL d          45.736  13.411   1.581  0.00  0.00     0.036 A 
ATOM     26  S1  MOL d          44.534  14.344   0.611  0.00  0.00    -0.078 SA
ATOM     27  C2  MOL d          44.683  15.782   1.664  0.00  0.00     0.117 A 
ATOM     28  C3  MOL d          45.555  15.550   2.631  0.00  0.00     0.112 A 
ATOM     29  C4  MOL d          46.117  14.191   2.605  0.00  0.00     0.064 A 
ATOM     30 BR19 MOL d          47.172  13.667   4.047  0.00  0.00    -0.047 Br
BRANCH  27  31
ATOM     31  C6  MOL d          44.000  17.006   1.307  0.00  0.00     0.219 C 
ATOM     32  O7  MOL d          43.419  16.912   0.204  0.00  0.00    -0.643 OA
ATOM     33  O8  MOL d          43.998  18.041   2.009  0.00  0.00    -0.643 OA
ENDBRANCH  27  31
BRANCH  28  34
ATOM     34  O20 MOL d          45.797  16.462   3.561  0.00  0.00    -0.338 OA
BRANCH  34  35
ATOM     35  C21 MOL d          47.000  17.188   3.415  0.00  0.00     0.288 C 
BRANCH  35  36
ATOM     36  C22 MOL d          47.357  17.651   4.757  0.00  0.00     0.198 C 
ATOM     37  O25 MOL d          46.426  17.681   5.582  0.00  0.00    -0.646 OA
ATOM     38  O26 MOL d          48.538  17.984   5.010  0.00  0.00    -0.646 OA
ENDBRANCH  35  36
ENDBRANCH  34  35
ENDBRANCH  28  34
ENDBRANCH   1  25
TORSDOF 9
ENDMDL
MODEL 2
REMARK VINA RESULT:      -7.9      1.474      1.898
REMARK  9 active torsions:
REMARK  status: ('A' for Active; 'I' for Inactive)
REMARK    1  A    between atoms: C2_2  and  C6_6 
REMARK    2  A    between atoms: C3_3  and  O20_16 
REMARK    3  A    between atoms: C5_5  and  C9_9 
REMARK    4  A    between atoms: O20_16  and  C21_17 
REMARK    5  A    between atoms: C21_17  and  C22_18 
REMARK    6  A    between atoms: N29_21  and  C30_22 
REMARK    7  A    between atoms: N33_25  and  S46_28 
REMARK    8  A    between atoms: S46_28  and  C49_31 
REMARK    9  A    between atoms: C49_31  and  C50_32 
ROOT
ATOM      1  C9  MOL d          45.915  11.286   0.308  0.00  0.00    -0.015 A 
ATOM      2  C10 MOL d          47.284  10.880   0.580  0.00  0.00     0.042 A 
ATOM      3  C11 MOL d          47.611   9.487   0.535  0.00  0.00     0.029 A 
ATOM      4  C12 MOL d          46.586   8.500   0.202  0.00  0.00     0.029 A 
ATOM      5  C13 MOL d          45.218   8.895  -0.086  0.00  0.00     0.003 A 
ATOM      6  C14 MOL d          44.907  10.295  -0.051  0.00  0.00     0.013 A 
ATOM      7  N29 MOL d          48.915   9.220   0.815  0.00  0.00    -0.385 N 
ATOM      8  H7  MOL d          49.629   9.913   0.550  0.00  0.00     0.160 HD
ENDROOT
BRANCH   7   9
ATOM      9  C30 MOL d          49.334   8.014   1.462  0.00  0.00     0.084 C 
ATOM     10  C31 MOL d          50.851   7.900   1.306  0.00  0.00     0.045 C 
ATOM     11  C32 MOL d          51.449   6.756   2.092  0.00  0.00     0.137 C 
ATOM     12  N33 MOL d          50.936   6.853   3.459  0.00  0.00    -0.310 N 
ATOM     13  C34 MOL d          49.496   6.897   3.729  0.00  0.00     0.137 C 
ATOM     14  C35 MOL d          48.904   8.027   2.927  0.00  0.00     0.045 C 
BRANCH  12  15
ATOM     15  S46 MOL d          51.903   6.294   4.751  0.00  0.00     0.232 S 
ATOM     16  O47 MOL d          50.980   5.767   5.729  0.00  0.00    -0.205 OA
ATOM     17  O48 MOL d          52.776   7.398   5.105  0.00  0.00    -0.205 OA
BRANCH  15  18
ATOM     18  C49 MOL d          52.739   4.884   3.992  0.00  0.00     0.201 C 
BRANCH  18  19
ATOM     19  C50 MOL d          52.312   3.633   4.699  0.00  0.00    -0.043 A 
ATOM     20  C53 MOL d          53.046   3.290   5.901  0.00  0.00     0.008 A 
ATOM     21  C54 MOL d          52.580   2.150   6.661  0.00  0.00     0.001 A 
ATOM     22  C55 MOL d          51.437   1.376   6.180  0.00  0.00     0.000 A 
ATOM     23  C56 MOL d          50.705   1.741   4.982  0.00  0.00     0.001 A 
ATOM     24  C57 MOL d          51.148   2.889   4.209  0.00  0.00     0.008 A 
ENDBRANCH  18  19
ENDBRANCH  15  18
ENDBRANCH  12  15
ENDBRANCH   7   9
BRANCH   1  25
ATOM     25  C5  MOL d          45.482  12.695   0.407  0.00  0.00     0.036 A 
ATOM     26  S1  MOL d          44.440  13.407  -0.883  0.00  0.00    -0.078 SA
ATOM     27  C2  MOL d          44.343  14.983  -0.042  0.00  0.00     0.117 A 
ATOM     28  C3  MOL d          45.034  14.942   1.084  0.00  0.00     0.112 A 
ATOM     29  C4  MOL d          45.643  13.631   1.356  0.00  0.00     0.064 A 
ATOM     30 BR19 MOL d          46.438  13.378   3.020  0.00  0.00    -0.047 Br
BRANCH  27  31
ATOM     31  C6  MOL d          43.691  16.101  -0.689  0.00  0.00     0.219 C 
ATOM     32  O7  MOL d          42.701  15.740  -1.361  0.00  0.00    -0.643 OA
ATOM     33  O8  MOL d          44.075  17.288  -0.598  0.00  0.00    -0.643 OA
ENDBRANCH  27  31
BRANCH  28  34
ATOM     34  O20 MOL d          45.071  15.987   1.898  0.00  0.00    -0.338 OA
BRANCH  34  35
ATOM     35  C21 MOL d          44.130  15.981   2.953  0.00  0.00     0.288 C 
BRANCH  35  36
ATOM     36  C22 MOL d          44.798  16.611   4.092  0.00  0.00     0.198 C 
ATOM     37  O25 MOL d          44.844  15.930   5.133  0.00  0.00    -0.646 OA
ATOM     38  O26 MOL d          45.276  17.763   3.978  0.00  0.00    -0.646 OA
ENDBRANCH  35  36
ENDBRANCH  34  35
ENDBRANCH  28  34
ENDBRANCH   1  25
TORSDOF 9
ENDMDL
MODEL 3
REMARK VINA RESULT:      -7.8      2.180      2.846
REMARK  9 active torsions:
REMARK  status: ('A' for Active; 'I' for Inactive)
REMARK    1  A    between atoms: C2_2  and  C6_6 
REMARK    2  A    between atoms: C3_3  and  O20_16 
REMARK    3  A    between atoms: C5_5  and  C9_9 
REMARK    4  A    between atoms: O20_16  and  C21_17 
REMARK    5  A    between atoms: C21_17  and  C22_18 
REMARK    6  A    between atoms: N29_21  and  C30_22 
REMARK    7  A    between atoms: N33_25  and  S46_28 
REMARK    8  A    between atoms: S46_28  and  C49_31 
REMARK    9  A    between atoms: C49_31  and  C50_32 
ROOT
ATOM      1  C9  MOL d          45.969  11.484   0.944  0.00  0.00    -0.015 A 
ATOM      2  C10 MOL d          47.221  10.915   1.419  0.00  0.00     0.042 A 
ATOM      3  C11 MOL d          47.446   9.511   1.253  0.00  0.00     0.029 A 
ATOM      4  C12 MOL d          46.440   8.675   0.601  0.00  0.00     0.029 A 
ATOM      5  C13 MOL d          45.192   9.234   0.110  0.00  0.00     0.003 A 
ATOM      6  C14 MOL d          44.985  10.645   0.270  0.00  0.00     0.013 A 
ATOM      7  N29 MOL d          48.642   9.086   1.741  0.00  0.00    -0.385 N 
ATOM      8  H7  MOL d          49.444   9.731   1.714  0.00  0.00     0.160 HD
ENDROOT
BRANCH   7   9
ATOM      9  C30 MOL d          48.830   7.778   2.292  0.00  0.00     0.084 C 
ATOM     10  C31 MOL d          49.862   7.049   1.429  0.00  0.00     0.045 C 
ATOM     11  C32 MOL d          50.283   5.714   1.999  0.00  0.00     0.137 C 
ATOM     12  N33 MOL d          50.637   5.933   3.403  0.00  0.00    -0.310 N 
ATOM     13  C34 MOL d          49.696   6.559   4.335  0.00  0.00     0.137 C 
ATOM     14  C35 MOL d          49.267   7.880   3.751  0.00  0.00     0.045 C 
BRANCH  12  15
ATOM     15  S46 MOL d          51.828   4.943   4.122  0.00  0.00     0.232 S 
ATOM     16  O47 MOL d          51.154   4.234   5.186  0.00  0.00    -0.205 OA
ATOM     17  O48 MOL d          52.944   5.818   4.433  0.00  0.00    -0.205 OA
BRANCH  15  18
ATOM     18  C49 MOL d          52.148   3.749   2.805  0.00  0.00     0.201 C 
BRANCH  18  19
ATOM     19  C50 MOL d          53.556   3.931   2.321  0.00  0.00    -0.043 A 
ATOM     20  C53 MOL d          54.562   3.083   2.930  0.00  0.00     0.008 A 
ATOM     21  C54 MOL d          55.906   3.162   2.400  0.00  0.00     0.001 A 
ATOM     22  C55 MOL d          56.207   4.103   1.323  0.00  0.00     0.000 A 
ATOM     23  C56 MOL d          55.185   4.935   0.715  0.00  0.00     0.001 A 
ATOM     24  C57 MOL d          53.826   4.864   1.223  0.00  0.00     0.008 A 
ENDBRANCH  18  19
ENDBRANCH  15  18
ENDBRANCH  12  15
ENDBRANCH   7   9
BRANCH   1  25
ATOM     25  C5  MOL d          45.630  12.907   1.144  0.00  0.00     0.036 A 
ATOM     26  S1  MOL d          44.439  13.709   0.051  0.00  0.00    -0.078 SA
ATOM     27  C2  MOL d          44.556  15.260   0.934  0.00  0.00     0.117 A 
ATOM     28  C3  MOL d          45.411  15.150   1.936  0.00  0.00     0.112 A 
ATOM     29  C4  MOL d          45.985  13.804   2.078  0.00  0.00     0.064 A 
ATOM     30 BR19 MOL d          47.017  13.461   3.590  0.00  0.00    -0.047 Br
BRANCH  27  31
ATOM     31  C6  MOL d          43.869  16.427   0.425  0.00  0.00     0.219 C 
ATOM     32  O7  MOL d          43.055  16.889   1.253  0.00  0.00    -0.643 OA
ATOM     33  O8  MOL d          44.058  16.914  -0.712  0.00  0.00    -0.643 OA
ENDBRANCH  27  31
BRANCH  28  34
ATOM     34  O20 MOL d          45.628  16.166   2.760  0.00  0.00    -0.338 OA
BRANCH  34  35
ATOM     35  C21 MOL d          44.902  16.144   3.971  0.00  0.00     0.288 C 
BRANCH  35  36
ATOM     36  C22 MOL d          45.759  16.789   4.967  0.00  0.00     0.198 C 
ATOM     37  O25 MOL d          45.811  18.031   4.910  0.00  0.00    -0.646 OA
ATOM     38  O26 MOL d          46.379  16.093   5.803  0.00  0.00    -0.646 OA
ENDBRANCH  35  36
ENDBRANCH  34  35
ENDBRANCH  28  34
ENDBRANCH   1  25
TORSDOF 9
ENDMDL
MODEL 4
REMARK VINA RESULT:      -7.7      2.073      3.698
REMARK  9 active torsions:
REMARK  status: ('A' for Active; 'I' for Inactive)
REMARK    1  A    between atoms: C2_2  and  C6_6 
REMARK    2  A    between atoms: C3_3  and  O20_16 
REMARK    3  A    between atoms: C5_5  and  C9_9 
REMARK    4  A    between atoms: O20_16  and  C21_17 
REMARK    5  A    between atoms: C21_17  and  C22_18 
REMARK    6  A    between atoms: N29_21  and  C30_22 
REMARK    7  A    between atoms: N33_25  and  S46_28 
REMARK    8  A    between atoms: S46_28  and  C49_31 
REMARK    9  A    between atoms: C49_31  and  C50_32 
ROOT
ATOM      1  C9  MOL d          45.440  11.516   0.113  0.00  0.00    -0.015 A 
ATOM      2  C10 MOL d          46.791  11.123   0.483  0.00  0.00     0.042 A 
ATOM      3  C11 MOL d          47.115   9.729   0.528  0.00  0.00     0.029 A 
ATOM      4  C12 MOL d          46.106   8.727   0.189  0.00  0.00     0.029 A 
ATOM      5  C13 MOL d          44.758   9.108  -0.196  0.00  0.00     0.003 A 
ATOM      6  C14 MOL d          44.451  10.508  -0.251  0.00  0.00     0.013 A 
ATOM      7  N29 MOL d          48.399   9.476   0.895  0.00  0.00    -0.385 N 
ATOM      8  H7  MOL d          49.130  10.154   0.637  0.00  0.00     0.160 HD
ENDROOT
BRANCH   7   9
ATOM      9  C30 MOL d          48.777   8.306   1.627  0.00  0.00     0.084 C 
ATOM     10  C31 MOL d          50.055   7.750   0.998  0.00  0.00     0.045 C 
ATOM     11  C32 MOL d          50.661   6.608   1.781  0.00  0.00     0.137 C 
ATOM     12  N33 MOL d          50.749   7.037   3.178  0.00  0.00    -0.310 N 
ATOM     13  C34 MOL d          49.569   7.520   3.900  0.00  0.00     0.137 C 
ATOM     14  C35 MOL d          48.961   8.645   3.104  0.00  0.00     0.045 C 
BRANCH  12  15
ATOM     15  S46 MOL d          52.002   6.419   4.159  0.00  0.00     0.232 S 
ATOM     16  O47 MOL d          52.577   7.565   4.825  0.00  0.00    -0.205 OA
ATOM     17  O48 MOL d          52.827   5.602   3.288  0.00  0.00    -0.205 OA
BRANCH  15  18
ATOM     18  C49 MOL d          51.068   5.495   5.399  0.00  0.00     0.201 C 
BRANCH  18  19
ATOM     19  C50 MOL d          51.493   4.058   5.352  0.00  0.00    -0.043 A 
ATOM     20  C53 MOL d          52.665   3.706   6.129  0.00  0.00     0.008 A 
ATOM     21  C54 MOL d          53.027   2.307   6.188  0.00  0.00     0.001 A 
ATOM     22  C55 MOL d          52.243   1.322   5.445  0.00  0.00     0.000 A 
ATOM     23  C56 MOL d          51.065   1.690   4.681  0.00  0.00     0.001 A 
ATOM     24  C57 MOL d          50.675   3.088   4.618  0.00  0.00     0.008 A 
ENDBRANCH  18  19
ENDBRANCH  15  18
ENDBRANCH  12  15
ENDBRANCH   7   9
BRANCH   1  25
ATOM     25  C5  MOL d          45.008  12.928   0.114  0.00  0.00     0.036 A 
ATOM     26  S1  MOL d          45.082  13.889   1.640  0.00  0.00    -0.078 SA
ATOM     27  C2  MOL d          44.486  15.367   0.829  0.00  0.00     0.117 A 
ATOM     28  C3  MOL d          44.262  15.127  -0.451  0.00  0.00     0.112 A 
ATOM     29  C4  MOL d          44.600  13.755  -0.862  0.00  0.00     0.064 A 
ATOM     30 BR19 MOL d          44.555  13.363  -2.682  0.00  0.00    -0.047 Br
BRANCH  27  31
ATOM     31  C6  MOL d          44.194  16.547   1.615  0.00  0.00     0.219 C 
ATOM     32  O7  MOL d          43.044  16.983   1.395  0.00  0.00    -0.643 OA
ATOM     33  O8  MOL d          45.000  17.077   2.412  0.00  0.00    -0.643 OA
ENDBRANCH  27  31
BRANCH  28  34
ATOM     34  O20 MOL d          43.855  16.091  -1.264  0.00  0.00    -0.338 OA
BRANCH  34  35
ATOM     35  C21 MOL d          42.573  15.919  -1.832  0.00  0.00     0.288 C 
BRANCH  35  36
ATOM     36  C22 MOL d          42.539  16.773  -3.020  0.00  0.00     0.198 C 
ATOM     37  O25 MOL d          43.644  17.020  -3.537  0.00  0.00    -0.646 OA
ATOM     38  O26 MOL d          41.445  17.202  -3.451  0.00  0.00    -0.646 OA
ENDBRANCH  35  36
ENDBRANCH  34  35
ENDBRANCH  28  34
ENDBRANCH   1  25
TORSDOF 9
ENDMDL
MODEL 5
REMARK VINA RESULT:      -7.6      3.769     12.632
REMARK  9 active torsions:
REMARK  status: ('A' for Active; 'I' for Inactive)
REMARK    1  A    between atoms: C2_2  and  C6_6 
REMARK    2  A    between atoms: C3_3  and  O20_16 
REMARK    3  A    between atoms: C5_5  and  C9_9 
REMARK    4  A    between atoms: O20_16  and  C21_17 
REMARK    5  A    between atoms: C21_17  and  C22_18 
REMARK    6  A    between atoms: N29_21  and  C30_22 
REMARK    7  A    between atoms: N33_25  and  S46_28 
REMARK    8  A    between atoms: S46_28  and  C49_31 
REMARK    9  A    between atoms: C49_31  and  C50_32 
ROOT
ATOM      1  C9  MOL d          50.012   4.908   2.477  0.00  0.00    -0.015 A 
ATOM      2  C10 MOL d          48.891   5.733   2.054  0.00  0.00     0.042 A 
ATOM      3  C11 MOL d          49.154   6.907   1.279  0.00  0.00     0.029 A 
ATOM      4  C12 MOL d          50.525   7.253   0.908  0.00  0.00     0.029 A 
ATOM      5  C13 MOL d          51.651   6.429   1.312  0.00  0.00     0.003 A 
ATOM      6  C14 MOL d          51.372   5.248   2.077  0.00  0.00     0.013 A 
ATOM      7  N29 MOL d          48.037   7.607   0.948  0.00  0.00    -0.385 N 
ATOM      8  H7  MOL d          47.157   7.093   0.799  0.00  0.00     0.160 HD
ENDROOT
BRANCH   7   9
ATOM      9  C30 MOL d          48.034   9.031   0.797  0.00  0.00     0.084 C 
ATOM     10  C31 MOL d          46.953   9.394  -0.221  0.00  0.00     0.045 C 
ATOM     11  C32 MOL d          46.725  10.882  -0.348  0.00  0.00     0.137 C 
ATOM     12  N33 MOL d          46.557  11.413   1.006  0.00  0.00    -0.310 N 
ATOM     13  C34 MOL d          47.567  11.186   2.042  0.00  0.00     0.137 C 
ATOM     14  C35 MOL d          47.802   9.701   2.149  0.00  0.00     0.045 C 
BRANCH  12  15
ATOM     15  S46 MOL d          45.564  12.782   1.243  0.00  0.00     0.232 S 
ATOM     16  O47 MOL d          44.226  12.266   1.423  0.00  0.00    -0.205 OA
ATOM     17  O48 MOL d          45.848  13.681   0.140  0.00  0.00    -0.205 OA
BRANCH  15  18
ATOM     18  C49 MOL d          46.131  13.364   2.857  0.00  0.00     0.201 C 
BRANCH  18  19
ATOM     19  C50 MOL d          46.146  14.863   2.850  0.00  0.00    -0.043 A 
ATOM     20  C53 MOL d          44.883  15.520   2.575  0.00  0.00     0.008 A 
ATOM     21  C54 MOL d          44.849  16.963   2.675  0.00  0.00     0.001 A 
ATOM     22  C55 MOL d          46.070  17.697   3.000  0.00  0.00     0.000 A 
ATOM     23  C56 MOL d          47.324  17.023   3.285  0.00  0.00     0.001 A 
ATOM     24  C57 MOL d          47.379  15.574   3.204  0.00  0.00     0.008 A 
ENDBRANCH  18  19
ENDBRANCH  15  18
ENDBRANCH  12  15
ENDBRANCH   7   9
BRANCH   1  25
ATOM     25  C5  MOL d          49.830   3.723   3.340  0.00  0.00     0.036 A 
ATOM     26  S1  MOL d          50.366   3.775   5.063  0.00  0.00    -0.078 SA
ATOM     27  C2  MOL d          49.787   2.112   5.374  0.00  0.00     0.117 A 
ATOM     28  C3  MOL d          49.255   1.602   4.277  0.00  0.00     0.112 A 
ATOM     29  C4  MOL d          49.243   2.533   3.138  0.00  0.00     0.064 A 
ATOM     30 BR19 MOL d          48.309   2.017   1.612  0.00  0.00    -0.047 Br
BRANCH  27  31
ATOM     31  C6  MOL d          50.060   1.486   6.650  0.00  0.00     0.219 C 
ATOM     32  O7  MOL d          51.262   1.166   6.766  0.00  0.00    -0.643 OA
ATOM     33  O8  MOL d          49.196   1.277   7.530  0.00  0.00    -0.643 OA
ENDBRANCH  27  31
BRANCH  28  34
ATOM     34  O20 MOL d          48.718   0.390   4.281  0.00  0.00    -0.338 OA
BRANCH  34  35
ATOM     35  C21 MOL d          47.358   0.319   4.656  0.00  0.00     0.288 C 
BRANCH  35  36
ATOM     36  C22 MOL d          46.816  -0.864   3.986  0.00  0.00     0.198 C 
ATOM     37  O25 MOL d          45.815  -1.375   4.522  0.00  0.00    -0.646 OA
ATOM     38  O26 MOL d          47.358  -1.296   2.943  0.00  0.00    -0.646 OA
ENDBRANCH  35  36
ENDBRANCH  34  35
ENDBRANCH  28  34
ENDBRANCH   1  25
TORSDOF 9
ENDMDL
MODEL 6
REMARK VINA RESULT:      -7.6      2.798      3.626
REMARK  9 active torsions:
REMARK  status: ('A' for Active; 'I' for Inactive)
REMARK    1  A    between atoms: C2_2  and  C6_6 
REMARK    2  A    between atoms: C3_3  and  O20_16 
REMARK    3  A    between atoms: C5_5  and  C9_9 
REMARK    4  A    between atoms: O20_16  and  C21_17 
REMARK    5  A    between atoms: C21_17  and  C22_18 
REMARK    6  A    between atoms: N29_21  and  C30_22 
REMARK    7  A    between atoms: N33_25  and  S46_28 
REMARK    8  A    between atoms: S46_28  and  C49_31 
REMARK    9  A    between atoms: C49_31  and  C50_32 
ROOT
ATOM      1  C9  MOL d          46.523  12.144   1.357  0.00  0.00    -0.015 A 
ATOM      2  C10 MOL d          46.657  11.671  -0.012  0.00  0.00     0.042 A 
ATOM      3  C11 MOL d          47.219  10.374  -0.240  0.00  0.00     0.029 A 
ATOM      4  C12 MOL d          47.631   9.541   0.887  0.00  0.00     0.029 A 
ATOM      5  C13 MOL d          47.489   9.997   2.259  0.00  0.00     0.003 A 
ATOM      6  C14 MOL d          46.911  11.292   2.474  0.00  0.00     0.013 A 
ATOM      7  N29 MOL d          47.306  10.038  -1.555  0.00  0.00    -0.385 N 
ATOM      8  H7  MOL d          46.595  10.400  -2.206  0.00  0.00     0.160 HD
ENDROOT
BRANCH   7   9
ATOM      9  C30 MOL d          48.347   9.202  -2.071  0.00  0.00     0.084 C 
ATOM     10  C31 MOL d          49.646   9.572  -1.353  0.00  0.00     0.045 C 
ATOM     11  C32 MOL d          50.795   8.646  -1.680  0.00  0.00     0.137 C 
ATOM     12  N33 MOL d          50.313   7.275  -1.502  0.00  0.00    -0.310 N 
ATOM     13  C34 MOL d          49.118   6.794  -2.198  0.00  0.00     0.137 C 
ATOM     14  C35 MOL d          47.982   7.732  -1.883  0.00  0.00     0.045 C 
BRANCH  12  15
ATOM     15  S46 MOL d          51.417   6.063  -1.023  0.00  0.00     0.232 S 
ATOM     16  O47 MOL d          52.579   6.767  -0.530  0.00  0.00    -0.205 OA
ATOM     17  O48 MOL d          51.545   5.167  -2.157  0.00  0.00    -0.205 OA
BRANCH  15  18
ATOM     18  C49 MOL d          50.576   5.354   0.409  0.00  0.00     0.201 C 
BRANCH  18  19
ATOM     19  C50 MOL d          51.053   6.055   1.645  0.00  0.00    -0.043 A 
ATOM     20  C53 MOL d          50.349   7.268   2.011  0.00  0.00     0.008 A 
ATOM     21  C54 MOL d          50.719   7.900   3.259  0.00  0.00     0.001 A 
ATOM     22  C55 MOL d          51.794   7.331   4.070  0.00  0.00     0.000 A 
ATOM     23  C56 MOL d          52.480   6.108   3.696  0.00  0.00     0.001 A 
ATOM     24  C57 MOL d          52.117   5.450   2.452  0.00  0.00     0.008 A 
ENDBRANCH  18  19
ENDBRANCH  15  18
ENDBRANCH  12  15
ENDBRANCH   7   9
BRANCH   1  25
ATOM     25  C5  MOL d          46.021  13.497   1.672  0.00  0.00     0.036 A 
ATOM     26  S1  MOL d          44.762  14.255   0.624  0.00  0.00    -0.078 SA
ATOM     27  C2  MOL d          44.689  15.724   1.642  0.00  0.00     0.117 A 
ATOM     28  C3  MOL d          45.536  15.622   2.652  0.00  0.00     0.112 A 
ATOM     29  C4  MOL d          46.259  14.341   2.689  0.00  0.00     0.064 A 
ATOM     30 BR19 MOL d          47.301  13.982   4.189  0.00  0.00    -0.047 Br
BRANCH  27  31
ATOM     31  C6  MOL d          43.881  16.848   1.221  0.00  0.00     0.219 C 
ATOM     32  O7  MOL d          43.367  16.659   0.098  0.00  0.00    -0.643 OA
ATOM     33  O8  MOL d          43.722  17.891   1.893  0.00  0.00    -0.643 OA
ENDBRANCH  27  31
BRANCH  28  34
ATOM     34  O20 MOL d          45.625  16.577   3.566  0.00  0.00    -0.338 OA
BRANCH  34  35
ATOM     35  C21 MOL d          46.657  17.523   3.373  0.00  0.00     0.288 C 
BRANCH  35  36
ATOM     36  C22 MOL d          47.317  17.669   4.670  0.00  0.00     0.198 C 
ATOM     37  O25 MOL d          46.562  17.697   5.659  0.00  0.00    -0.646 OA
ATOM     38  O26 MOL d          48.565  17.756   4.730  0.00  0.00    -0.646 OA
ENDBRANCH  35  36
ENDBRANCH  34  35
ENDBRANCH  28  34
ENDBRANCH   1  25
TORSDOF 9
ENDMDL
MODEL 7
REMARK VINA RESULT:      -7.3      4.671     12.901
REMARK  9 active torsions:
REMARK  status: ('A' for Active; 'I' for Inactive)
REMARK    1  A    between atoms: C2_2  and  C6_6 
REMARK    2  A    between atoms: C3_3  and  O20_16 
REMARK    3  A    between atoms: C5_5  and  C9_9 
REMARK    4  A    between atoms: O20_16  and  C21_17 
REMARK    5  A    between atoms: C21_17  and  C22_18 
REMARK    6  A    between atoms: N29_21  and  C30_22 
REMARK    7  A    between atoms: N33_25  and  S46_28 
REMARK    8  A    between atoms: S46_28  and  C49_31 
REMARK    9  A    between atoms: C49_31  and  C50_32 
ROOT
ATOM      1  C9  MOL d          52.771   5.423   3.302  0.00  0.00    -0.015 A 
ATOM      2  C10 MOL d          52.089   6.046   2.179  0.00  0.00     0.042 A 
ATOM      3  C11 MOL d          51.406   7.286   2.389  0.00  0.00     0.029 A 
ATOM      4  C12 MOL d          51.415   7.917   3.707  0.00  0.00     0.029 A 
ATOM      5  C13 MOL d          52.105   7.312   4.833  0.00  0.00     0.003 A 
ATOM      6  C14 MOL d          52.797   6.076   4.605  0.00  0.00     0.013 A 
ATOM      7  N29 MOL d          50.796   7.772   1.276  0.00  0.00    -0.385 N 
ATOM      8  H7  MOL d          51.219   7.580   0.357  0.00  0.00     0.160 HD
ENDROOT
BRANCH   7   9
ATOM      9  C30 MOL d          49.589   8.539   1.329  0.00  0.00     0.084 C 
ATOM     10  C31 MOL d          49.707   9.674   0.311  0.00  0.00     0.045 C 
ATOM     11  C32 MOL d          48.429  10.463   0.142  0.00  0.00     0.137 C 
ATOM     12  N33 MOL d          47.349   9.498  -0.073  0.00  0.00    -0.310 N 
ATOM     13  C34 MOL d          47.100   8.412   0.878  0.00  0.00     0.137 C 
ATOM     14  C35 MOL d          48.383   7.642   1.056  0.00  0.00     0.045 C 
BRANCH  12  15
ATOM     15  S46 MOL d          46.009   9.953  -1.029  0.00  0.00     0.232 S 
ATOM     16  O47 MOL d          45.569   8.742  -1.684  0.00  0.00    -0.205 OA
ATOM     17  O48 MOL d          46.448  11.085  -1.824  0.00  0.00    -0.205 OA
BRANCH  15  18
ATOM     18  C49 MOL d          44.781  10.350   0.237  0.00  0.00     0.201 C 
BRANCH  18  19
ATOM     19  C50 MOL d          45.101  11.696   0.812  0.00  0.00    -0.043 A 
ATOM     20  C53 MOL d          44.508  12.840   0.146  0.00  0.00     0.008 A 
ATOM     21  C54 MOL d          44.711  14.139   0.750  0.00  0.00     0.001 A 
ATOM     22  C55 MOL d          45.523  14.258   1.960  0.00  0.00     0.000 A 
ATOM     23  C56 MOL d          46.098  13.101   2.622  0.00  0.00     0.001 A 
ATOM     24  C57 MOL d          45.897  11.785   2.040  0.00  0.00     0.008 A 
ENDBRANCH  18  19
ENDBRANCH  15  18
ENDBRANCH  12  15
ENDBRANCH   7   9
BRANCH   1  25
ATOM     25  C5  MOL d          53.435   4.108   3.184  0.00  0.00     0.036 A 
ATOM     26  S1  MOL d          52.794   2.693   4.102  0.00  0.00    -0.078 SA
ATOM     27  C2  MOL d          54.027   1.593   3.418  0.00  0.00     0.117 A 
ATOM     28  C3  MOL d          54.820   2.254   2.593  0.00  0.00     0.112 A 
ATOM     29  C4  MOL d          54.455   3.670   2.431  0.00  0.00     0.064 A 
ATOM     30 BR19 MOL d          55.346   4.645   1.119  0.00  0.00    -0.047 Br
BRANCH  27  31
ATOM     31  C6  MOL d          54.118   0.231   3.900  0.00  0.00     0.219 C 
ATOM     32  O7  MOL d          53.376  -0.542   3.258  0.00  0.00    -0.643 OA
ATOM     33  O8  MOL d          54.845  -0.130   4.851  0.00  0.00    -0.643 OA
ENDBRANCH  27  31
BRANCH  28  34
ATOM     34  O20 MOL d          55.786   1.632   1.932  0.00  0.00    -0.338 OA
BRANCH  34  35
ATOM     35  C21 MOL d          57.025   1.529   2.602  0.00  0.00     0.288 C 
BRANCH  35  36
ATOM     36  C22 MOL d          57.961   2.367   1.851  0.00  0.00     0.198 C 
ATOM     37  O25 MOL d          58.424   3.344   2.467  0.00  0.00    -0.646 OA
ATOM     38  O26 MOL d          58.247   2.077   0.666  0.00  0.00    -0.646 OA
ENDBRANCH  35  36
ENDBRANCH  34  35
ENDBRANCH  28  34
ENDBRANCH   1  25
TORSDOF 9
ENDMDL
MODEL 8
REMARK VINA RESULT:      -7.2      2.968      4.521
REMARK  9 active torsions:
REMARK  status: ('A' for Active; 'I' for Inactive)
REMARK    1  A    between atoms: C2_2  and  C6_6 
REMARK    2  A    between atoms: C3_3  and  O20_16 
REMARK    3  A    between atoms: C5_5  and  C9_9 
REMARK    4  A    between atoms: O20_16  and  C21_17 
REMARK    5  A    between atoms: C21_17  and  C22_18 
REMARK    6  A    between atoms: N29_21  and  C30_22 
REMARK    7  A    between atoms: N33_25  and  S46_28 
REMARK    8  A    between atoms: S46_28  and  C49_31 
REMARK    9  A    between atoms: C49_31  and  C50_32 
ROOT
ATOM      1  C9  MOL d          48.302   9.898   0.151  0.00  0.00    -0.015 A 
ATOM      2  C10 MOL d          48.297   9.179   1.416  0.00  0.00     0.042 A 
ATOM      3  C11 MOL d          49.494   8.519   1.838  0.00  0.00     0.029 A 
ATOM      4  C12 MOL d          50.702   8.586   1.017  0.00  0.00     0.029 A 
ATOM      5  C13 MOL d          50.724   9.312  -0.241  0.00  0.00     0.003 A 
ATOM      6  C14 MOL d          49.521   9.982  -0.645  0.00  0.00     0.013 A 
ATOM      7  N29 MOL d          49.373   7.870   3.027  0.00  0.00    -0.385 N 
ATOM      8  H7  MOL d          48.734   8.256   3.737  0.00  0.00     0.160 HD
ENDROOT
BRANCH   7   9
ATOM      9  C30 MOL d          50.098   6.675   3.332  0.00  0.00     0.084 C 
ATOM     10  C31 MOL d          51.476   7.081   3.858  0.00  0.00     0.045 C 
ATOM     11  C32 MOL d          52.285   5.917   4.381  0.00  0.00     0.137 C 
ATOM     12  N33 MOL d          51.425   5.168   5.300  0.00  0.00    -0.310 N 
ATOM     13  C34 MOL d          50.114   4.669   4.878  0.00  0.00     0.137 C 
ATOM     14  C35 MOL d          49.321   5.832   4.341  0.00  0.00     0.045 C 
BRANCH  12  15
ATOM     15  S46 MOL d          52.138   4.332   6.607  0.00  0.00     0.232 S 
ATOM     16  O47 MOL d          51.589   4.934   7.801  0.00  0.00    -0.205 OA
ATOM     17  O48 MOL d          53.570   4.369   6.375  0.00  0.00    -0.205 OA
BRANCH  15  18
ATOM     18  C49 MOL d          51.389   2.697   6.442  0.00  0.00     0.201 C 
BRANCH  18  19
ATOM     19  C50 MOL d          52.370   1.782   5.772  0.00  0.00    -0.043 A 
ATOM     20  C53 MOL d          53.089   0.866   6.635  0.00  0.00     0.008 A 
ATOM     21  C54 MOL d          53.958  -0.102   5.998  0.00  0.00     0.001 A 
ATOM     22  C55 MOL d          54.109  -0.095   4.545  0.00  0.00     0.000 A 
ATOM     23  C56 MOL d          53.370   0.821   3.694  0.00  0.00     0.001 A 
ATOM     24  C57 MOL d          52.483   1.793   4.311  0.00  0.00     0.008 A 
ENDBRANCH  18  19
ENDBRANCH  15  18
ENDBRANCH  12  15
ENDBRANCH   7   9
BRANCH   1  25
ATOM     25  C5  MOL d          47.088  10.542  -0.389  0.00  0.00     0.036 A 
ATOM     26  S1  MOL d          46.239   9.814  -1.805  0.00  0.00    -0.078 SA
ATOM     27  C2  MOL d          44.964  11.068  -1.783  0.00  0.00     0.117 A 
ATOM     28  C3  MOL d          45.186  11.928  -0.804  0.00  0.00     0.112 A 
ATOM     29  C4  MOL d          46.367  11.602   0.010  0.00  0.00     0.064 A 
ATOM     30 BR19 MOL d          46.649  12.597   1.559  0.00  0.00    -0.047 Br
BRANCH  27  31
ATOM     31  C6  MOL d          43.974  11.101  -2.838  0.00  0.00     0.219 C 
ATOM     32  O7  MOL d          44.391  11.696  -3.854  0.00  0.00    -0.643 OA
ATOM     33  O8  MOL d          42.830  10.603  -2.744  0.00  0.00    -0.643 OA
ENDBRANCH  27  31
BRANCH  28  34
ATOM     34  O20 MOL d          44.344  12.923  -0.568  0.00  0.00    -0.338 OA
BRANCH  34  35
ATOM     35  C21 MOL d          44.569  14.109  -1.301  0.00  0.00     0.288 C 
BRANCH  35  36
ATOM     36  C22 MOL d          44.125  15.206  -0.440  0.00  0.00     0.198 C 
ATOM     37  O25 MOL d          43.769  16.243  -1.029  0.00  0.00    -0.646 OA
ATOM     38  O26 MOL d          44.120  15.062   0.804  0.00  0.00    -0.646 OA
ENDBRANCH  35  36
ENDBRANCH  34  35
ENDBRANCH  28  34
ENDBRANCH   1  25
TORSDOF 9
ENDMDL
MODEL 9
REMARK VINA RESULT:      -7.2      4.466     13.214
REMARK  9 active torsions:
REMARK  status: ('A' for Active; 'I' for Inactive)
REMARK    1  A    between atoms: C2_2  and  C6_6 
REMARK    2  A    between atoms: C3_3  and  O20_16 
REMARK    3  A    between atoms: C5_5  and  C9_9 
REMARK    4  A    between atoms: O20_16  and  C21_17 
REMARK    5  A    between atoms: C21_17  and  C22_18 
REMARK    6  A    between atoms: N29_21  and  C30_22 
REMARK    7  A    between atoms: N33_25  and  S46_28 
REMARK    8  A    between atoms: S46_28  and  C49_31 
REMARK    9  A    between atoms: C49_31  and  C50_32 
ROOT
ATOM      1  C9  MOL d          52.629   5.028   3.511  0.00  0.00    -0.015 A 
ATOM      2  C10 MOL d          51.939   5.615   2.373  0.00  0.00     0.042 A 
ATOM      3  C11 MOL d          51.420   6.944   2.493  0.00  0.00     0.029 A 
ATOM      4  C12 MOL d          51.601   7.696   3.733  0.00  0.00     0.029 A 
ATOM      5  C13 MOL d          52.300   7.126   4.871  0.00  0.00     0.003 A 
ATOM      6  C14 MOL d          52.827   5.799   4.733  0.00  0.00     0.013 A 
ATOM      7  N29 MOL d          50.787   7.389   1.375  0.00  0.00    -0.385 N 
ATOM      8  H7  MOL d          51.115   7.057   0.456  0.00  0.00     0.160 HD
ENDROOT
BRANCH   7   9
ATOM      9  C30 MOL d          49.683   8.298   1.423  0.00  0.00     0.084 C 
ATOM     10  C31 MOL d          49.923   9.384   0.373  0.00  0.00     0.045 C 
ATOM     11  C32 MOL d          48.747  10.317   0.198  0.00  0.00     0.137 C 
ATOM     12  N33 MOL d          47.555   9.487   0.023  0.00  0.00    -0.310 N 
ATOM     13  C34 MOL d          47.191   8.463   1.006  0.00  0.00     0.137 C 
ATOM     14  C35 MOL d          48.374   7.548   1.189  0.00  0.00     0.045 C 
BRANCH  12  15
ATOM     15  S46 MOL d          46.264  10.077  -0.928  0.00  0.00     0.232 S 
ATOM     16  O47 MOL d          45.799   8.946  -1.697  0.00  0.00    -0.205 OA
ATOM     17  O48 MOL d          46.773  11.253  -1.609  0.00  0.00    -0.205 OA
BRANCH  15  18
ATOM     18  C49 MOL d          45.014  10.415   0.331  0.00  0.00     0.201 C 
BRANCH  18  19
ATOM     19  C50 MOL d          45.283  11.764   0.928  0.00  0.00    -0.043 A 
ATOM     20  C53 MOL d          44.559  12.880   0.351  0.00  0.00     0.008 A 
ATOM     21  C54 MOL d          44.718  14.172   0.983  0.00  0.00     0.001 A 
ATOM     22  C55 MOL d          45.615  14.314   2.129  0.00  0.00     0.000 A 
ATOM     23  C56 MOL d          46.322  13.184   2.702  0.00  0.00     0.001 A 
ATOM     24  C57 MOL d          46.168  11.874   2.091  0.00  0.00     0.008 A 
ENDBRANCH  18  19
ENDBRANCH  15  18
ENDBRANCH  12  15
ENDBRANCH   7   9
BRANCH   1  25
ATOM     25  C5  MOL d          53.127   3.638   3.492  0.00  0.00     0.036 A 
ATOM     26  S1  MOL d          54.739   3.271   2.768  0.00  0.00    -0.078 SA
ATOM     27  C2  MOL d          54.608   1.532   3.166  0.00  0.00     0.117 A 
ATOM     28  C3  MOL d          53.461   1.289   3.776  0.00  0.00     0.112 A 
ATOM     29  C4  MOL d          52.643   2.492   3.997  0.00  0.00     0.064 A 
ATOM     30 BR19 MOL d          51.120   2.317   5.053  0.00  0.00    -0.047 Br
BRANCH  27  31
ATOM     31  C6  MOL d          55.622   0.612   2.697  0.00  0.00     0.219 C 
ATOM     32  O7  MOL d          55.204  -0.107   1.764  0.00  0.00    -0.643 OA
ATOM     33  O8  MOL d          56.776   0.535   3.173  0.00  0.00    -0.643 OA
ENDBRANCH  27  31
BRANCH  28  34
ATOM     34  O20 MOL d          53.163   0.071   4.206  0.00  0.00    -0.338 OA
BRANCH  34  35
ATOM     35  C21 MOL d          53.556  -0.230   5.529  0.00  0.00     0.288 C 
BRANCH  35  36
ATOM     36  C22 MOL d          54.210  -1.538   5.467  0.00  0.00     0.198 C 
ATOM     37  O25 MOL d          53.949  -2.224   4.462  0.00  0.00    -0.646 OA
ATOM     38  O26 MOL d          54.976  -1.898   6.390  0.00  0.00    -0.646 OA
ENDBRANCH  35  36
ENDBRANCH  34  35
ENDBRANCH  28  34
ENDBRANCH   1  25
TORSDOF 9
ENDMDL
MODEL 10
REMARK VINA RESULT:      -7.1      3.323      4.865
REMARK  9 active torsions:
REMARK  status: ('A' for Active; 'I' for Inactive)
REMARK    1  A    between atoms: C2_2  and  C6_6 
REMARK    2  A    between atoms: C3_3  and  O20_16 
REMARK    3  A    between atoms: C5_5  and  C9_9 
REMARK    4  A    between atoms: O20_16  and  C21_17 
REMARK    5  A    between atoms: C21_17  and  C22_18 
REMARK    6  A    between atoms: N29_21  and  C30_22 
REMARK    7  A    between atoms: N33_25  and  S46_28 
REMARK    8  A    between atoms: S46_28  and  C49_31 
REMARK    9  A    between atoms: C49_31  and  C50_32 
ROOT
ATOM      1  C9  MOL d          45.332  13.245   0.585  0.00  0.00    -0.015 A 
ATOM      2  C10 MOL d          45.844  11.886   0.505  0.00  0.00     0.042 A 
ATOM      3  C11 MOL d          46.608  11.371   1.600  0.00  0.00     0.029 A 
ATOM      4  C12 MOL d          46.849  12.197   2.782  0.00  0.00     0.029 A 
ATOM      5  C13 MOL d          46.331  13.550   2.880  0.00  0.00     0.003 A 
ATOM      6  C14 MOL d          45.555  14.048   1.781  0.00  0.00     0.013 A 
ATOM      7  N29 MOL d          47.044  10.097   1.415  0.00  0.00    -0.385 N 
ATOM      8  H7  MOL d          46.464   9.452   0.859  0.00  0.00     0.160 HD
ENDROOT
BRANCH   7   9
ATOM      9  C30 MOL d          48.277   9.616   1.960  0.00  0.00     0.084 C 
ATOM     10  C31 MOL d          47.980   8.325   2.725  0.00  0.00     0.045 C 
ATOM     11  C32 MOL d          49.224   7.616   3.209  0.00  0.00     0.137 C 
ATOM     12  N33 MOL d          50.135   7.510   2.069  0.00  0.00    -0.310 N 
ATOM     13  C34 MOL d          50.543   8.694   1.308  0.00  0.00     0.137 C 
ATOM     14  C35 MOL d          49.298   9.404   0.845  0.00  0.00     0.045 C 
BRANCH  12  15
ATOM     15  S46 MOL d          51.209   6.184   1.985  0.00  0.00     0.232 S 
ATOM     16  O47 MOL d          51.994   6.393   0.790  0.00  0.00    -0.205 OA
ATOM     17  O48 MOL d          50.387   4.994   2.110  0.00  0.00    -0.205 OA
BRANCH  15  18
ATOM     18  C49 MOL d          52.291   6.506   3.396  0.00  0.00     0.201 C 
BRANCH  18  19
ATOM     19  C50 MOL d          52.203   5.348   4.345  0.00  0.00    -0.043 A 
ATOM     20  C53 MOL d          53.164   4.280   4.149  0.00  0.00     0.008 A 
ATOM     21  C54 MOL d          53.171   3.207   5.120  0.00  0.00     0.001 A 
ATOM     22  C55 MOL d          52.204   3.215   6.216  0.00  0.00     0.000 A 
ATOM     23  C56 MOL d          51.258   4.299   6.406  0.00  0.00     0.001 A 
ATOM     24  C57 MOL d          51.241   5.393   5.449  0.00  0.00     0.008 A 
ENDBRANCH  18  19
ENDBRANCH  15  18
ENDBRANCH  12  15
ENDBRANCH   7   9
BRANCH   1  25
ATOM     25  C5  MOL d          44.599  13.873  -0.533  0.00  0.00     0.036 A 
ATOM     26  S1  MOL d          44.203  12.905  -2.004  0.00  0.00    -0.078 SA
ATOM     27  C2  MOL d          43.346  14.276  -2.769  0.00  0.00     0.117 A 
ATOM     28  C3  MOL d          43.377  15.333  -1.976  0.00  0.00     0.112 A 
ATOM     29  C4  MOL d          44.051  15.088  -0.692  0.00  0.00     0.064 A 
ATOM     30 BR19 MOL d          43.951  16.422   0.603  0.00  0.00    -0.047 Br
BRANCH  27  31
ATOM     31  C6  MOL d          42.865  14.151  -4.128  0.00  0.00     0.219 C 
ATOM     32  O7  MOL d          43.772  14.348  -4.965  0.00  0.00    -0.643 OA
ATOM     33  O8  MOL d          41.681  13.888  -4.433  0.00  0.00    -0.643 OA
ENDBRANCH  27  31
BRANCH  28  34
ATOM     34  O20 MOL d          42.766  16.458  -2.318  0.00  0.00    -0.338 OA
BRANCH  34  35
ATOM     35  C21 MOL d          43.580  17.446  -2.915  0.00  0.00     0.288 C 
BRANCH  35  36
ATOM     36  C22 MOL d          42.944  17.775  -4.191  0.00  0.00     0.198 C 
ATOM     37  O25 MOL d          41.699  17.749  -4.196  0.00  0.00    -0.646 OA
ATOM     38  O26 MOL d          43.648  18.060  -5.187  0.00  0.00    -0.646 OA
ENDBRANCH  35  36
ENDBRANCH  34  35
ENDBRANCH  28  34
ENDBRANCH   1  25
TORSDOF 9
ENDMDL
