MODEL 1
REMARK VINA RESULT:      -8.5      0.000      0.000
REMARK  8 active torsions:
REMARK  status: ('A' for Active; 'I' for Inactive)
REMARK    1  A    between atoms: C2_2  and  C6_6 
REMARK    2  A    between atoms: C3_3  and  O20_16 
REMARK    3  A    between atoms: C5_5  and  C9_9 
REMARK    4  A    between atoms: C11_11  and  N29_21 
REMARK    5  A    between atoms: O20_16  and  C21_17 
REMARK    6  A    between atoms: C21_17  and  C22_18 
REMARK    7  A    between atoms: N29_21  and  C30_22 
REMARK    8  A    between atoms: C30_22  and  C31_23 
ROOT
ATOM      1  C9  MOL d          45.047  12.835   0.570  0.00  0.00    -0.015 A 
ATOM      2  C10 MOL d          44.796  13.203  -0.795  0.00  0.00     0.042 A 
ATOM      3  C11 MOL d          44.540  12.201  -1.776  0.00  0.00     0.029 A 
ATOM      4  C12 MOL d          44.531  10.806  -1.397  0.00  0.00     0.029 A 
ATOM      5  C13 MOL d          44.778  10.428  -0.035  0.00  0.00     0.003 A 
ATOM      6  C14 MOL d          45.037  11.448   0.937  0.00  0.00     0.013 A 
ENDROOT
BRANCH   1   7
ATOM      7  C5  MOL d          45.325  13.869   1.618  0.00  0.00     0.036 A 
ATOM      8  S1  MOL d          44.376  15.255   1.747  0.00  0.00    -0.078 SA
ATOM      9  C2  MOL d          45.220  15.927   3.071  0.00  0.00     0.117 A 
ATOM     10  C3  MOL d          46.279  15.059   3.447  0.00  0.00     0.112 A 
ATOM     11  C4  MOL d          46.330  13.905   2.619  0.00  0.00     0.064 A 
ATOM     12 BR19 MOL d          47.638  12.558   2.869  0.00  0.00    -0.047 Br
BRANCH   9  13
ATOM     13  C6  MOL d          44.822  17.165   3.623  0.00  0.00     0.219 C 
ATOM     14  O7  MOL d          44.554  17.270   4.819  0.00  0.00    -0.643 OA
ATOM     15  O8  MOL d          44.757  18.135   2.860  0.00  0.00    -0.643 OA
ENDBRANCH   9  13
BRANCH  10  16
ATOM     16  O20 MOL d          47.216  15.253   4.520  0.00  0.00    -0.338 OA
BRANCH  16  17
ATOM     17  C21 MOL d          48.267  16.187   4.249  0.00  0.00     0.288 C 
BRANCH  17  18
ATOM     18  C22 MOL d          48.221  17.327   5.267  0.00  0.00     0.198 C 
ATOM     19  O25 MOL d          49.165  18.135   5.315  0.00  0.00    -0.646 OA
ATOM     20  O26 MOL d          47.239  17.407   6.011  0.00  0.00    -0.646 OA
ENDBRANCH  17  18
ENDBRANCH  16  17
ENDBRANCH  10  16
ENDBRANCH   1   7
BRANCH   3  21
ATOM     21  N29 MOL d          44.311  12.634  -3.071  0.00  0.00    -0.386 N 
ATOM     22  H7  MOL d          44.291  11.919  -3.812  0.00  0.00     0.160 HD
BRANCH  21  23
ATOM     23  C30 MOL d          44.093  14.033  -3.473  0.00  0.00     0.158 C 
BRANCH  23  24
ATOM     24  C31 MOL d          42.679  14.514  -3.225  0.00  0.00    -0.041 A 
ATOM     25  C34 MOL d          42.462  15.782  -2.578  0.00  0.00     0.009 A 
ATOM     26  C35 MOL d          41.129  16.245  -2.344  0.00  0.00     0.001 A 
ATOM     27  C36 MOL d          40.026  15.428  -2.763  0.00  0.00     0.000 A 
ATOM     28  C37 MOL d          40.235  14.158  -3.410  0.00  0.00     0.001 A 
ATOM     29  C38 MOL d          41.575  13.698  -3.644  0.00  0.00     0.009 A 
ENDBRANCH  23  24
ENDBRANCH  21  23
ENDBRANCH   3  21
TORSDOF 8
ENDMDL
MODEL 2
REMARK VINA RESULT:      -8.4      1.651      2.307
REMARK  8 active torsions:
REMARK  status: ('A' for Active; 'I' for Inactive)
REMARK    1  A    between atoms: C2_2  and  C6_6 
REMARK    2  A    between atoms: C3_3  and  O20_16 
REMARK    3  A    between atoms: C5_5  and  C9_9 
REMARK    4  A    between atoms: C11_11  and  N29_21 
REMARK    5  A    between atoms: O20_16  and  C21_17 
REMARK    6  A    between atoms: C21_17  and  C22_18 
REMARK    7  A    between atoms: N29_21  and  C30_22 
REMARK    8  A    between atoms: C30_22  and  C31_23 
ROOT
ATOM      1  C9  MOL d          45.082  12.480   0.509  0.00  0.00    -0.015 A 
ATOM      2  C10 MOL d          44.841  12.639  -0.898  0.00  0.00     0.042 A 
ATOM      3  C11 MOL d          44.571  11.503  -1.715  0.00  0.00     0.029 A 
ATOM      4  C12 MOL d          44.538  10.183  -1.127  0.00  0.00     0.029 A 
ATOM      5  C13 MOL d          44.774  10.013   0.278  0.00  0.00     0.003 A 
ATOM      6  C14 MOL d          45.046  11.166   1.084  0.00  0.00     0.013 A 
ENDROOT
BRANCH   1   7
ATOM      7  C5  MOL d          45.374  13.658   1.388  0.00  0.00     0.036 A 
ATOM      8  S1  MOL d          44.637  15.150   1.119  0.00  0.00    -0.078 SA
ATOM      9  C2  MOL d          45.393  15.959   2.419  0.00  0.00     0.117 A 
ATOM     10  C3  MOL d          46.250  15.058   3.104  0.00  0.00     0.112 A 
ATOM     11  C4  MOL d          46.233  13.766   2.512  0.00  0.00     0.064 A 
ATOM     12 BR19 MOL d          47.277  12.342   3.199  0.00  0.00    -0.047 Br
BRANCH   9  13
ATOM     13  C6  MOL d          45.119  17.322   2.673  0.00  0.00     0.219 C 
ATOM     14  O7  MOL d          44.836  17.711   3.805  0.00  0.00    -0.643 OA
ATOM     15  O8  MOL d          45.177  18.102   1.717  0.00  0.00    -0.643 OA
ENDBRANCH   9  13
BRANCH  10  16
ATOM     16  O20 MOL d          47.057  15.341   4.260  0.00  0.00    -0.338 OA
BRANCH  16  17
ATOM     17  C21 MOL d          48.149  16.239   4.034  0.00  0.00     0.288 C 
BRANCH  17  18
ATOM     18  C22 MOL d          48.151  17.330   5.103  0.00  0.00     0.198 C 
ATOM     19  O25 MOL d          47.204  17.394   5.907  0.00  0.00    -0.646 OA
ATOM     20  O26 MOL d          49.102  18.118   5.134  0.00  0.00    -0.646 OA
ENDBRANCH  17  18
ENDBRANCH  16  17
ENDBRANCH  10  16
ENDBRANCH   1   7
BRANCH   3  21
ATOM     21  N29 MOL d          44.353  11.735  -3.062  0.00  0.00    -0.386 N 
ATOM     22  H7  MOL d          44.817  12.553  -3.482  0.00  0.00     0.160 HD
BRANCH  21  23
ATOM     23  C30 MOL d          43.512  10.907  -3.942  0.00  0.00     0.158 C 
BRANCH  23  24
ATOM     24  C31 MOL d          42.045  10.937  -3.569  0.00  0.00    -0.041 A 
ATOM     25  C34 MOL d          41.416   9.744  -3.063  0.00  0.00     0.009 A 
ATOM     26  C35 MOL d          40.031   9.765  -2.704  0.00  0.00     0.001 A 
ATOM     27  C36 MOL d          39.292  10.987  -2.856  0.00  0.00     0.000 A 
ATOM     28  C37 MOL d          39.915  12.184  -3.361  0.00  0.00     0.001 A 
ATOM     29  C38 MOL d          41.306  12.158  -3.720  0.00  0.00     0.009 A 
ENDBRANCH  23  24
ENDBRANCH  21  23
ENDBRANCH   3  21
TORSDOF 8
ENDMDL
MODEL 3
REMARK VINA RESULT:      -8.4      2.160      5.050
REMARK  8 active torsions:
REMARK  status: ('A' for Active; 'I' for Inactive)
REMARK    1  A    between atoms: C2_2  and  C6_6 
REMARK    2  A    between atoms: C3_3  and  O20_16 
REMARK    3  A    between atoms: C5_5  and  C9_9 
REMARK    4  A    between atoms: C11_11  and  N29_21 
REMARK    5  A    between atoms: O20_16  and  C21_17 
REMARK    6  A    between atoms: C21_17  and  C22_18 
REMARK    7  A    between atoms: N29_21  and  C30_22 
REMARK    8  A    between atoms: C30_22  and  C31_23 
ROOT
ATOM      1  C9  MOL d          45.011  13.245   0.237  0.00  0.00    -0.015 A 
ATOM      2  C10 MOL d          45.085  11.820   0.397  0.00  0.00     0.042 A 
ATOM      3  C11 MOL d          44.820  10.956  -0.706  0.00  0.00     0.029 A 
ATOM      4  C12 MOL d          44.478  11.517  -1.994  0.00  0.00     0.029 A 
ATOM      5  C13 MOL d          44.404  12.939  -2.165  0.00  0.00     0.003 A 
ATOM      6  C14 MOL d          44.670  13.791  -1.045  0.00  0.00     0.013 A 
ENDROOT
BRANCH   1   7
ATOM      7  C5  MOL d          45.278  14.172   1.383  0.00  0.00     0.036 A 
ATOM      8  S1  MOL d          44.355  15.564   1.612  0.00  0.00    -0.078 SA
ATOM      9  C2  MOL d          45.171  16.091   3.016  0.00  0.00     0.117 A 
ATOM     10  C3  MOL d          46.199  15.167   3.342  0.00  0.00     0.112 A 
ATOM     11  C4  MOL d          46.251  14.092   2.413  0.00  0.00     0.064 A 
ATOM     12 BR19 MOL d          47.521  12.696   2.577  0.00  0.00    -0.047 Br
BRANCH   9  13
ATOM     13  C6  MOL d          44.782  17.283   3.668  0.00  0.00     0.219 C 
ATOM     14  O7  MOL d          44.582  17.306   4.881  0.00  0.00    -0.643 OA
ATOM     15  O8  MOL d          44.656  18.297   2.973  0.00  0.00    -0.643 OA
ENDBRANCH   9  13
BRANCH  10  16
ATOM     16  O20 MOL d          47.105  15.238   4.456  0.00  0.00    -0.338 OA
BRANCH  16  17
ATOM     17  C21 MOL d          48.256  16.066   4.252  0.00  0.00     0.288 C 
BRANCH  17  18
ATOM     18  C22 MOL d          48.182  17.288   5.167  0.00  0.00     0.198 C 
ATOM     19  O25 MOL d          49.016  18.201   5.028  0.00  0.00    -0.646 OA
ATOM     20  O26 MOL d          47.290  17.328   6.019  0.00  0.00    -0.646 OA
ENDBRANCH  17  18
ENDBRANCH  16  17
ENDBRANCH  10  16
ENDBRANCH   1   7
BRANCH   3  21
ATOM     21  N29 MOL d          44.907   9.595  -0.473  0.00  0.00    -0.386 N 
ATOM     22  H7  MOL d          44.121   9.148   0.020  0.00  0.00     0.160 HD
BRANCH  21  23
ATOM     23  C30 MOL d          46.032   8.734  -0.874  0.00  0.00     0.158 C 
BRANCH  23  24
ATOM     24  C31 MOL d          47.259   8.909  -0.003  0.00  0.00    -0.041 A 
ATOM     25  C34 MOL d          47.248   8.412   1.349  0.00  0.00     0.009 A 
ATOM     26  C35 MOL d          48.405   8.569   2.177  0.00  0.00     0.001 A 
ATOM     27  C36 MOL d          49.561   9.226   1.636  0.00  0.00     0.000 A 
ATOM     28  C37 MOL d          49.579   9.727   0.285  0.00  0.00     0.001 A 
ATOM     29  C38 MOL d          48.416   9.565  -0.542  0.00  0.00     0.009 A 
ENDBRANCH  23  24
ENDBRANCH  21  23
ENDBRANCH   3  21
TORSDOF 8
ENDMDL
MODEL 4
REMARK VINA RESULT:      -8.2      1.253      2.204
REMARK  8 active torsions:
REMARK  status: ('A' for Active; 'I' for Inactive)
REMARK    1  A    between atoms: C2_2  and  C6_6 
REMARK    2  A    between atoms: C3_3  and  O20_16 
REMARK    3  A    between atoms: C5_5  and  C9_9 
REMARK    4  A    between atoms: C11_11  and  N29_21 
REMARK    5  A    between atoms: O20_16  and  C21_17 
REMARK    6  A    between atoms: C21_17  and  C22_18 
REMARK    7  A    between atoms: N29_21  and  C30_22 
REMARK    8  A    between atoms: C30_22  and  C31_23 
ROOT
ATOM      1  C9  MOL d          45.102  12.875   0.541  0.00  0.00    -0.015 A 
ATOM      2  C10 MOL d          44.973  13.243  -0.841  0.00  0.00     0.042 A 
ATOM      3  C11 MOL d          44.727  12.248  -1.832  0.00  0.00     0.029 A 
ATOM      4  C12 MOL d          44.604  10.861  -1.445  0.00  0.00     0.029 A 
ATOM      5  C13 MOL d          44.728  10.482  -0.067  0.00  0.00     0.003 A 
ATOM      6  C14 MOL d          44.979  11.495   0.915  0.00  0.00     0.013 A 
ENDROOT
BRANCH   1   7
ATOM      7  C5  MOL d          45.368  13.901   1.600  0.00  0.00     0.036 A 
ATOM      8  S1  MOL d          44.420  15.289   1.725  0.00  0.00    -0.078 SA
ATOM      9  C2  MOL d          45.247  15.949   3.066  0.00  0.00     0.117 A 
ATOM     10  C3  MOL d          46.299  15.076   3.450  0.00  0.00     0.112 A 
ATOM     11  C4  MOL d          46.359  13.928   2.615  0.00  0.00     0.064 A 
ATOM     12 BR19 MOL d          47.660  12.575   2.874  0.00  0.00    -0.047 Br
BRANCH   9  13
ATOM     13  C6  MOL d          44.844  17.185   3.620  0.00  0.00     0.219 C 
ATOM     14  O7  MOL d          44.549  17.279   4.810  0.00  0.00    -0.643 OA
ATOM     15  O8  MOL d          44.804  18.162   2.865  0.00  0.00    -0.643 OA
ENDBRANCH   9  13
BRANCH  10  16
ATOM     16  O20 MOL d          47.222  15.260   4.538  0.00  0.00    -0.338 OA
BRANCH  16  17
ATOM     17  C21 MOL d          48.287  16.183   4.283  0.00  0.00     0.288 C 
BRANCH  17  18
ATOM     18  C22 MOL d          48.222  17.336   5.284  0.00  0.00     0.198 C 
ATOM     19  O25 MOL d          47.232  17.436   6.031  0.00  0.00    -0.646 OA
ATOM     20  O26 MOL d          49.163  18.134   5.318  0.00  0.00    -0.646 OA
ENDBRANCH  17  18
ENDBRANCH  16  17
ENDBRANCH  10  16
ENDBRANCH   1   7
BRANCH   3  21
ATOM     21  N29 MOL d          44.619  12.680  -3.142  0.00  0.00    -0.386 N 
ATOM     22  H7  MOL d          45.170  12.178  -3.853  0.00  0.00     0.160 HD
BRANCH  21  23
ATOM     23  C30 MOL d          43.780  13.799  -3.602  0.00  0.00     0.158 C 
BRANCH  23  24
ATOM     24  C31 MOL d          44.455  15.148  -3.465  0.00  0.00    -0.041 A 
ATOM     25  C34 MOL d          45.737  15.368  -4.083  0.00  0.00     0.009 A 
ATOM     26  C35 MOL d          46.379  16.641  -3.961  0.00  0.00     0.001 A 
ATOM     27  C36 MOL d          45.724  17.681  -3.219  0.00  0.00     0.000 A 
ATOM     28  C37 MOL d          44.441  17.468  -2.598  0.00  0.00     0.001 A 
ATOM     29  C38 MOL d          43.801  16.189  -2.724  0.00  0.00     0.009 A 
ENDBRANCH  23  24
ENDBRANCH  21  23
ENDBRANCH   3  21
TORSDOF 8
ENDMDL
MODEL 5
REMARK VINA RESULT:      -8.1      6.383      8.683
REMARK  8 active torsions:
REMARK  status: ('A' for Active; 'I' for Inactive)
REMARK    1  A    between atoms: C2_2  and  C6_6 
REMARK    2  A    between atoms: C3_3  and  O20_16 
REMARK    3  A    between atoms: C5_5  and  C9_9 
REMARK    4  A    between atoms: C11_11  and  N29_21 
REMARK    5  A    between atoms: O20_16  and  C21_17 
REMARK    6  A    between atoms: C21_17  and  C22_18 
REMARK    7  A    between atoms: N29_21  and  C30_22 
REMARK    8  A    between atoms: C30_22  and  C31_23 
ROOT
ATOM      1  C9  MOL d          47.563   9.662   1.241  0.00  0.00    -0.015 A 
ATOM      2  C10 MOL d          47.434  10.998   1.751  0.00  0.00     0.042 A 
ATOM      3  C11 MOL d          46.219  11.723   1.575  0.00  0.00     0.029 A 
ATOM      4  C12 MOL d          45.109  11.110   0.880  0.00  0.00     0.029 A 
ATOM      5  C13 MOL d          45.227   9.775   0.369  0.00  0.00     0.003 A 
ATOM      6  C14 MOL d          46.456   9.063   0.553  0.00  0.00     0.013 A 
ENDROOT
BRANCH   1   7
ATOM      7  C5  MOL d          48.832   8.883   1.409  0.00  0.00     0.036 A 
ATOM      8  S1  MOL d          50.120   9.076   0.340  0.00  0.00    -0.078 SA
ATOM      9  C2  MOL d          51.154   7.950   1.101  0.00  0.00     0.117 A 
ATOM     10  C3  MOL d          50.499   7.394   2.231  0.00  0.00     0.112 A 
ATOM     11  C4  MOL d          49.190   7.926   2.392  0.00  0.00     0.064 A 
ATOM     12 BR19 MOL d          48.061   7.378   3.812  0.00  0.00    -0.047 Br
BRANCH   9  13
ATOM     13  C6  MOL d          52.447   7.701   0.588  0.00  0.00     0.219 C 
ATOM     14  O7  MOL d          53.032   6.647   0.829  0.00  0.00    -0.643 OA
ATOM     15  O8  MOL d          52.961   8.580  -0.112  0.00  0.00    -0.643 OA
ENDBRANCH   9  13
BRANCH  10  16
ATOM     16  O20 MOL d          51.029   6.419   3.146  0.00  0.00    -0.338 OA
BRANCH  16  17
ATOM     17  C21 MOL d          51.323   6.913   4.458  0.00  0.00     0.288 C 
BRANCH  17  18
ATOM     18  C22 MOL d          52.837   6.998   4.650  0.00  0.00     0.198 C 
ATOM     19  O25 MOL d          53.574   6.221   4.017  0.00  0.00    -0.646 OA
ATOM     20  O26 MOL d          53.280   7.843   5.434  0.00  0.00    -0.646 OA
ENDBRANCH  17  18
ENDBRANCH  16  17
ENDBRANCH  10  16
ENDBRANCH   1   7
BRANCH   3  21
ATOM     21  N29 MOL d          46.172  13.006   2.090  0.00  0.00    -0.386 N 
ATOM     22  H7  MOL d          45.526  13.673   1.643  0.00  0.00     0.160 HD
BRANCH  21  23
ATOM     23  C30 MOL d          46.972  13.496   3.225  0.00  0.00     0.158 C 
BRANCH  23  24
ATOM     24  C31 MOL d          46.933  15.002   3.378  0.00  0.00    -0.041 A 
ATOM     25  C34 MOL d          48.011  15.676   4.057  0.00  0.00     0.009 A 
ATOM     26  C35 MOL d          47.984  17.099   4.202  0.00  0.00     0.001 A 
ATOM     27  C36 MOL d          46.873  17.831   3.662  0.00  0.00     0.000 A 
ATOM     28  C37 MOL d          45.791  17.164   2.983  0.00  0.00     0.001 A 
ATOM     29  C38 MOL d          45.823  15.736   2.839  0.00  0.00     0.009 A 
ENDBRANCH  23  24
ENDBRANCH  21  23
ENDBRANCH   3  21
TORSDOF 8
ENDMDL
MODEL 6
REMARK VINA RESULT:      -7.6      3.745      6.760
REMARK  8 active torsions:
REMARK  status: ('A' for Active; 'I' for Inactive)
REMARK    1  A    between atoms: C2_2  and  C6_6 
REMARK    2  A    between atoms: C3_3  and  O20_16 
REMARK    3  A    between atoms: C5_5  and  C9_9 
REMARK    4  A    between atoms: C11_11  and  N29_21 
REMARK    5  A    between atoms: O20_16  and  C21_17 
REMARK    6  A    between atoms: C21_17  and  C22_18 
REMARK    7  A    between atoms: N29_21  and  C30_22 
REMARK    8  A    between atoms: C30_22  and  C31_23 
ROOT
ATOM      1  C9  MOL d          45.693  11.873   0.666  0.00  0.00    -0.015 A 
ATOM      2  C10 MOL d          46.448  10.796   1.242  0.00  0.00     0.042 A 
ATOM      3  C11 MOL d          46.496   9.525   0.599  0.00  0.00     0.029 A 
ATOM      4  C12 MOL d          45.783   9.317  -0.642  0.00  0.00     0.029 A 
ATOM      5  C13 MOL d          45.028  10.388  -1.228  0.00  0.00     0.003 A 
ATOM      6  C14 MOL d          44.988  11.658  -0.565  0.00  0.00     0.013 A 
ENDROOT
BRANCH   1   7
ATOM      7  C5  MOL d          45.621  13.216   1.327  0.00  0.00     0.036 A 
ATOM      8  S1  MOL d          44.693  14.461   0.673  0.00  0.00    -0.078 SA
ATOM      9  C2  MOL d          45.063  15.612   1.880  0.00  0.00     0.117 A 
ATOM     10  C3  MOL d          45.934  15.030   2.839  0.00  0.00     0.112 A 
ATOM     11  C4  MOL d          46.244  13.681   2.514  0.00  0.00     0.064 A 
ATOM     12 BR19 MOL d          47.387  12.633   3.603  0.00  0.00    -0.047 Br
BRANCH   9  13
ATOM     13  C6  MOL d          44.517  16.914   1.822  0.00  0.00     0.219 C 
ATOM     14  O7  MOL d          45.240  17.907   1.871  0.00  0.00    -0.643 OA
ATOM     15  O8  MOL d          43.290  17.013   1.717  0.00  0.00    -0.643 OA
ENDBRANCH   9  13
BRANCH  10  16
ATOM     16  O20 MOL d          46.470  15.660   4.015  0.00  0.00    -0.338 OA
BRANCH  16  17
ATOM     17  C21 MOL d          47.655  16.435   3.803  0.00  0.00     0.288 C 
BRANCH  17  18
ATOM     18  C22 MOL d          47.949  17.279   5.042  0.00  0.00     0.198 C 
ATOM     19  O25 MOL d          49.090  17.748   5.201  0.00  0.00    -0.646 OA
ATOM     20  O26 MOL d          47.035  17.470   5.850  0.00  0.00    -0.646 OA
ENDBRANCH  17  18
ENDBRANCH  16  17
ENDBRANCH  10  16
ENDBRANCH   1   7
BRANCH   3  21
ATOM     21  N29 MOL d          47.240   8.535   1.217  0.00  0.00    -0.386 N 
ATOM     22  H7  MOL d          47.174   7.583   0.831  0.00  0.00     0.160 HD
BRANCH  21  23
ATOM     23  C30 MOL d          48.119   8.735   2.381  0.00  0.00     0.158 C 
BRANCH  23  24
ATOM     24  C31 MOL d          48.585   7.438   3.008  0.00  0.00    -0.041 A 
ATOM     25  C34 MOL d          49.012   7.426   4.384  0.00  0.00     0.009 A 
ATOM     26  C35 MOL d          49.449   6.204   4.985  0.00  0.00     0.001 A 
ATOM     27  C36 MOL d          49.452   5.004   4.197  0.00  0.00     0.000 A 
ATOM     28  C37 MOL d          49.027   5.009   2.820  0.00  0.00     0.001 A 
ATOM     29  C38 MOL d          48.589   6.238   2.221  0.00  0.00     0.009 A 
ENDBRANCH  23  24
ENDBRANCH  21  23
ENDBRANCH   3  21
TORSDOF 8
ENDMDL
MODEL 7
REMARK VINA RESULT:      -7.5      6.647      9.171
REMARK  8 active torsions:
REMARK  status: ('A' for Active; 'I' for Inactive)
REMARK    1  A    between atoms: C2_2  and  C6_6 
REMARK    2  A    between atoms: C3_3  and  O20_16 
REMARK    3  A    between atoms: C5_5  and  C9_9 
REMARK    4  A    between atoms: C11_11  and  N29_21 
REMARK    5  A    between atoms: O20_16  and  C21_17 
REMARK    6  A    between atoms: C21_17  and  C22_18 
REMARK    7  A    between atoms: N29_21  and  C30_22 
REMARK    8  A    between atoms: C30_22  and  C31_23 
ROOT
ATOM      1  C9  MOL d          47.794   9.416   1.824  0.00  0.00    -0.015 A 
ATOM      2  C10 MOL d          47.541  10.757   2.271  0.00  0.00     0.042 A 
ATOM      3  C11 MOL d          46.412  11.478   1.784  0.00  0.00     0.029 A 
ATOM      4  C12 MOL d          45.515  10.857   0.835  0.00  0.00     0.029 A 
ATOM      5  C13 MOL d          45.757   9.517   0.383  0.00  0.00     0.003 A 
ATOM      6  C14 MOL d          46.899   8.809   0.882  0.00  0.00     0.013 A 
ENDROOT
BRANCH   1   7
ATOM      7  C5  MOL d          48.978   8.641   2.317  0.00  0.00     0.036 A 
ATOM      8  S1  MOL d          48.900   7.744   3.741  0.00  0.00    -0.078 SA
ATOM      9  C2  MOL d          50.506   7.166   3.676  0.00  0.00     0.117 A 
ATOM     10  C3  MOL d          51.144   7.671   2.512  0.00  0.00     0.112 A 
ATOM     11  C4  MOL d          50.274   8.503   1.757  0.00  0.00     0.064 A 
ATOM     12 BR19 MOL d          50.837   9.330   0.148  0.00  0.00    -0.047 Br
BRANCH   9  13
ATOM     13  C6  MOL d          51.004   6.315   4.688  0.00  0.00     0.219 C 
ATOM     14  O7  MOL d          52.112   6.504   5.187  0.00  0.00    -0.643 OA
ATOM     15  O8  MOL d          50.284   5.379   5.051  0.00  0.00    -0.643 OA
ENDBRANCH   9  13
BRANCH  10  16
ATOM     16  O20 MOL d          52.492   7.413   2.085  0.00  0.00    -0.338 OA
BRANCH  16  17
ATOM     17  C21 MOL d          52.666   6.224   1.305  0.00  0.00     0.288 C 
BRANCH  17  18
ATOM     18  C22 MOL d          53.331   5.142   2.153  0.00  0.00     0.198 C 
ATOM     19  O25 MOL d          52.692   4.111   2.431  0.00  0.00    -0.646 OA
ATOM     20  O26 MOL d          54.490   5.328   2.536  0.00  0.00    -0.646 OA
ENDBRANCH  17  18
ENDBRANCH  16  17
ENDBRANCH  10  16
ENDBRANCH   1   7
BRANCH   3  21
ATOM     21  N29 MOL d          46.236  12.766   2.258  0.00  0.00    -0.386 N 
ATOM     22  H7  MOL d          45.491  13.332   1.828  0.00  0.00     0.160 HD
BRANCH  21  23
ATOM     23  C30 MOL d          47.030  13.393   3.328  0.00  0.00     0.158 C 
BRANCH  23  24
ATOM     24  C31 MOL d          46.917  14.903   3.350  0.00  0.00    -0.041 A 
ATOM     25  C34 MOL d          47.959  15.685   3.964  0.00  0.00     0.009 A 
ATOM     26  C35 MOL d          47.862  17.113   3.984  0.00  0.00     0.001 A 
ATOM     27  C36 MOL d          46.718  17.740   3.386  0.00  0.00     0.000 A 
ATOM     28  C37 MOL d          45.671  16.964   2.771  0.00  0.00     0.001 A 
ATOM     29  C38 MOL d          45.773  15.532   2.752  0.00  0.00     0.009 A 
ENDBRANCH  23  24
ENDBRANCH  21  23
ENDBRANCH   3  21
TORSDOF 8
ENDMDL
MODEL 8
REMARK VINA RESULT:      -7.5      7.784      9.872
REMARK  8 active torsions:
REMARK  status: ('A' for Active; 'I' for Inactive)
REMARK    1  A    between atoms: C2_2  and  C6_6 
REMARK    2  A    between atoms: C3_3  and  O20_16 
REMARK    3  A    between atoms: C5_5  and  C9_9 
REMARK    4  A    between atoms: C11_11  and  N29_21 
REMARK    5  A    between atoms: O20_16  and  C21_17 
REMARK    6  A    between atoms: C21_17  and  C22_18 
REMARK    7  A    between atoms: N29_21  and  C30_22 
REMARK    8  A    between atoms: C30_22  and  C31_23 
ROOT
ATOM      1  C9  MOL d          49.167   7.509   1.667  0.00  0.00    -0.015 A 
ATOM      2  C10 MOL d          48.402   8.669   2.033  0.00  0.00     0.042 A 
ATOM      3  C11 MOL d          47.528   9.283   1.089  0.00  0.00     0.029 A 
ATOM      4  C12 MOL d          47.408   8.736  -0.244  0.00  0.00     0.029 A 
ATOM      5  C13 MOL d          48.166   7.577  -0.619  0.00  0.00     0.003 A 
ATOM      6  C14 MOL d          49.041   6.975   0.341  0.00  0.00     0.013 A 
ENDROOT
BRANCH   1   7
ATOM      7  C5  MOL d          50.097   6.851   2.639  0.00  0.00     0.036 A 
ATOM      8  S1  MOL d          51.426   7.675   3.269  0.00  0.00    -0.078 SA
ATOM      9  C2  MOL d          51.988   6.389   4.242  0.00  0.00     0.117 A 
ATOM     10  C3  MOL d          51.126   5.270   4.094  0.00  0.00     0.112 A 
ATOM     11  C4  MOL d          50.067   5.542   3.185  0.00  0.00     0.064 A 
ATOM     12 BR19 MOL d          48.750   4.243   2.775  0.00  0.00    -0.047 Br
BRANCH   9  13
ATOM     13  C6  MOL d          53.147   6.543   5.036  0.00  0.00     0.219 C 
ATOM     14  O7  MOL d          53.884   5.588   5.272  0.00  0.00    -0.643 OA
ATOM     15  O8  MOL d          53.389   7.671   5.478  0.00  0.00    -0.643 OA
ENDBRANCH   9  13
BRANCH  10  16
ATOM     16  O20 MOL d          51.242   3.996   4.749  0.00  0.00    -0.338 OA
BRANCH  16  17
ATOM     17  C21 MOL d          50.644   3.923   6.048  0.00  0.00     0.288 C 
BRANCH  17  18
ATOM     18  C22 MOL d          51.734   3.829   7.115  0.00  0.00     0.198 C 
ATOM     19  O25 MOL d          51.905   4.784   7.893  0.00  0.00    -0.646 OA
ATOM     20  O26 MOL d          52.412   2.798   7.170  0.00  0.00    -0.646 OA
ENDBRANCH  17  18
ENDBRANCH  16  17
ENDBRANCH  10  16
ENDBRANCH   1   7
BRANCH   3  21
ATOM     21  N29 MOL d          46.827  10.398   1.514  0.00  0.00    -0.386 N 
ATOM     22  H7  MOL d          45.907  10.571   1.085  0.00  0.00     0.160 HD
BRANCH  21  23
ATOM     23  C30 MOL d          47.292  11.357   2.530  0.00  0.00     0.158 C 
BRANCH  23  24
ATOM     24  C31 MOL d          46.610  12.706   2.435  0.00  0.00    -0.041 A 
ATOM     25  C34 MOL d          45.506  12.882   1.526  0.00  0.00     0.009 A 
ATOM     26  C35 MOL d          44.853  14.152   1.434  0.00  0.00     0.001 A 
ATOM     27  C36 MOL d          45.317  15.233   2.258  0.00  0.00     0.000 A 
ATOM     28  C37 MOL d          46.420  15.064   3.168  0.00  0.00     0.001 A 
ATOM     29  C38 MOL d          47.072  13.787   3.258  0.00  0.00     0.009 A 
ENDBRANCH  23  24
ENDBRANCH  21  23
ENDBRANCH   3  21
TORSDOF 8
ENDMDL
MODEL 9
REMARK VINA RESULT:      -7.3      6.079      8.468
REMARK  8 active torsions:
REMARK  status: ('A' for Active; 'I' for Inactive)
REMARK    1  A    between atoms: C2_2  and  C6_6 
REMARK    2  A    between atoms: C3_3  and  O20_16 
REMARK    3  A    between atoms: C5_5  and  C9_9 
REMARK    4  A    between atoms: C11_11  and  N29_21 
REMARK    5  A    between atoms: O20_16  and  C21_17 
REMARK    6  A    between atoms: C21_17  and  C22_18 
REMARK    7  A    between atoms: N29_21  and  C30_22 
REMARK    8  A    between atoms: C30_22  and  C31_23 
ROOT
ATOM      1  C9  MOL d          47.552  10.309   0.478  0.00  0.00    -0.015 A 
ATOM      2  C10 MOL d          47.216  11.701   0.590  0.00  0.00     0.042 A 
ATOM      3  C11 MOL d          45.854  12.120   0.541  0.00  0.00     0.029 A 
ATOM      4  C12 MOL d          44.804  11.139   0.379  0.00  0.00     0.029 A 
ATOM      5  C13 MOL d          45.129   9.746   0.270  0.00  0.00     0.003 A 
ATOM      6  C14 MOL d          46.503   9.344   0.318  0.00  0.00     0.013 A 
ENDROOT
BRANCH   1   7
ATOM      7  C5  MOL d          48.977   9.846   0.520  0.00  0.00     0.036 A 
ATOM      8  S1  MOL d          50.061  10.250  -0.705  0.00  0.00    -0.078 SA
ATOM      9  C2  MOL d          51.403   9.436  -0.032  0.00  0.00     0.117 A 
ATOM     10  C3  MOL d          51.020   8.824   1.192  0.00  0.00     0.112 A 
ATOM     11  C4  MOL d          49.651   9.060   1.489  0.00  0.00     0.064 A 
ATOM     12 BR19 MOL d          48.840   8.369   3.057  0.00  0.00    -0.047 Br
BRANCH   9  13
ATOM     13  C6  MOL d          52.654   9.449  -0.688  0.00  0.00     0.219 C 
ATOM     14  O7  MOL d          53.432  10.391  -0.552  0.00  0.00    -0.643 OA
ATOM     15  O8  MOL d          52.934   8.478  -1.399  0.00  0.00    -0.643 OA
ENDBRANCH   9  13
BRANCH  10  16
ATOM     16  O20 MOL d          51.857   8.055   2.072  0.00  0.00    -0.338 OA
BRANCH  16  17
ATOM     17  C21 MOL d          52.041   6.686   1.695  0.00  0.00     0.288 C 
BRANCH  17  18
ATOM     18  C22 MOL d          53.113   6.047   2.577  0.00  0.00     0.198 C 
ATOM     19  O25 MOL d          53.343   6.531   3.700  0.00  0.00    -0.646 OA
ATOM     20  O26 MOL d          53.718   5.063   2.142  0.00  0.00    -0.646 OA
ENDBRANCH  17  18
ENDBRANCH  16  17
ENDBRANCH  10  16
ENDBRANCH   1   7
BRANCH   3  21
ATOM     21  N29 MOL d          45.609  13.477   0.651  0.00  0.00    -0.386 N 
ATOM     22  H7  MOL d          45.911  14.077  -0.130  0.00  0.00     0.160 HD
BRANCH  21  23
ATOM     23  C30 MOL d          44.952  14.132   1.794  0.00  0.00     0.158 C 
BRANCH  23  24
ATOM     24  C31 MOL d          45.847  15.122   2.511  0.00  0.00    -0.041 A 
ATOM     25  C34 MOL d          45.584  16.533   2.394  0.00  0.00     0.009 A 
ATOM     26  C35 MOL d          46.421  17.474   3.072  0.00  0.00     0.001 A 
ATOM     27  C36 MOL d          47.516  16.986   3.862  0.00  0.00     0.000 A 
ATOM     28  C37 MOL d          47.786  15.576   3.983  0.00  0.00     0.001 A 
ATOM     29  C38 MOL d          46.942  14.636   3.301  0.00  0.00     0.009 A 
ENDBRANCH  23  24
ENDBRANCH  21  23
ENDBRANCH   3  21
TORSDOF 8
ENDMDL
MODEL 10
REMARK VINA RESULT:      -7.2      4.342      6.386
REMARK  8 active torsions:
REMARK  status: ('A' for Active; 'I' for Inactive)
REMARK    1  A    between atoms: C2_2  and  C6_6 
REMARK    2  A    between atoms: C3_3  and  O20_16 
REMARK    3  A    between atoms: C5_5  and  C9_9 
REMARK    4  A    between atoms: C11_11  and  N29_21 
REMARK    5  A    between atoms: O20_16  and  C21_17 
REMARK    6  A    between atoms: C21_17  and  C22_18 
REMARK    7  A    between atoms: N29_21  and  C30_22 
REMARK    8  A    between atoms: C30_22  and  C31_23 
ROOT
ATOM      1  C9  MOL d          47.548  11.925   1.809  0.00  0.00    -0.015 A 
ATOM      2  C10 MOL d          48.458  11.873   0.699  0.00  0.00     0.042 A 
ATOM      3  C11 MOL d          49.236  10.703   0.458  0.00  0.00     0.029 A 
ATOM      4  C12 MOL d          49.109   9.561   1.335  0.00  0.00     0.029 A 
ATOM      5  C13 MOL d          48.201   9.601   2.445  0.00  0.00     0.003 A 
ATOM      6  C14 MOL d          47.429  10.786   2.673  0.00  0.00     0.013 A 
ENDROOT
BRANCH   1   7
ATOM      7  C5  MOL d          46.724  13.145   2.085  0.00  0.00     0.036 A 
ATOM      8  S1  MOL d          47.045  14.130   3.415  0.00  0.00    -0.078 SA
ATOM      9  C2  MOL d          45.795  15.253   3.111  0.00  0.00     0.117 A 
ATOM     10  C3  MOL d          45.092  14.873   1.937  0.00  0.00     0.112 A 
ATOM     11  C4  MOL d          45.623  13.683   1.371  0.00  0.00     0.064 A 
ATOM     12 BR19 MOL d          44.896  12.919  -0.204  0.00  0.00    -0.047 Br
BRANCH   9  13
ATOM     13  C6  MOL d          45.596  16.356   3.972  0.00  0.00     0.219 C 
ATOM     14  O7  MOL d          44.979  16.232   5.028  0.00  0.00    -0.643 OA
ATOM     15  O8  MOL d          46.066  17.443   3.622  0.00  0.00    -0.643 OA
ENDBRANCH   9  13
BRANCH  10  16
ATOM     16  O20 MOL d          43.980  15.558   1.335  0.00  0.00    -0.338 OA
BRANCH  16  17
ATOM     17  C21 MOL d          44.332  16.631   0.454  0.00  0.00     0.288 C 
BRANCH  17  18
ATOM     18  C22 MOL d          43.936  16.275  -0.978  0.00  0.00     0.198 C 
ATOM     19  O25 MOL d          44.821  16.189  -1.849  0.00  0.00    -0.646 OA
ATOM     20  O26 MOL d          42.742  16.081  -1.224  0.00  0.00    -0.646 OA
ENDBRANCH  17  18
ENDBRANCH  16  17
ENDBRANCH  10  16
ENDBRANCH   1   7
BRANCH   3  21
ATOM     21  N29 MOL d          50.093  10.731  -0.628  0.00  0.00    -0.386 N 
ATOM     22  H7  MOL d          50.956  10.172  -0.564  0.00  0.00     0.160 HD
BRANCH  21  23
ATOM     23  C30 MOL d          49.870  11.495  -1.867  0.00  0.00     0.158 C 
BRANCH  23  24
ATOM     24  C31 MOL d          50.641  12.798  -1.913  0.00  0.00    -0.041 A 
ATOM     25  C34 MOL d          50.183  13.865  -2.765  0.00  0.00     0.009 A 
ATOM     26  C35 MOL d          50.904  15.101  -2.810  0.00  0.00     0.001 A 
ATOM     27  C36 MOL d          52.077  15.251  -1.998  0.00  0.00     0.000 A 
ATOM     28  C37 MOL d          52.541  14.187  -1.143  0.00  0.00     0.001 A 
ATOM     29  C38 MOL d          51.815  12.949  -1.100  0.00  0.00     0.009 A 
ENDBRANCH  23  24
ENDBRANCH  21  23
ENDBRANCH   3  21
TORSDOF 8
ENDMDL
