MODEL 1
REMARK VINA RESULT:      -7.8      0.000      0.000
REMARK  22 active torsions:
REMARK  status: ('A' for Active; 'I' for Inactive)
REMARK    1  A    between atoms: N4B_18  and  C1A_1 
REMARK    2  A    between atoms: C2A_2  and  O2A_8 
REMARK    3  A    between atoms: C3A_3  and  O3A_9 
REMARK    4  A    between atoms: C4A_4  and  O4A_10 
REMARK    5  A    between atoms: C5A_5  and  C6A_6 
REMARK    6  A    between atoms: C6A_6  and  O6A_11 
REMARK    7  A    between atoms: O4C_30  and  C1B_12 
REMARK    8  A    between atoms: C2B_13  and  O2B_19 
REMARK    9  A    between atoms: C3B_14  and  O3B_20 
REMARK   10  A    between atoms: C4B_15  and  N4B_18 
REMARK   11  A    between atoms: O4D_42  and  C1C_22 
REMARK   12  A    between atoms: C2C_23  and  O2C_28 
REMARK   13  A    between atoms: C3C_24  and  O3C_29 
REMARK   14  A    between atoms: C4C_25  and  O4C_30 
REMARK   15  A    between atoms: C5C_26  and  C6C_27 
REMARK   16  A    between atoms: C6C_27  and  O6C_32 
REMARK   17  A    between atoms: C1D_33  and  O1D_39 
REMARK   18  A    between atoms: C2D_34  and  O2D_40 
REMARK   19  A    between atoms: C3D_35  and  O3D_41 
REMARK   20  A    between atoms: C4D_36  and  O4D_42 
REMARK   21  A    between atoms: C5D_37  and  C6D_38 
REMARK   22  A    between atoms: C6D_38  and  O6D_44 
ROOT
ATOM      1  O4C ACR d         -19.882  -6.060  -4.304  0.00  0.00    -0.348 OA
ENDROOT
BRANCH   1   2
ATOM      2  C1B ACR d         -18.684  -6.491  -4.979  0.00  0.00     0.292 C 
ATOM      3  C2B ACR d         -18.205  -5.391  -5.926  0.00  0.00     0.204 C 
ATOM      4  C3B ACR d         -19.233  -5.169  -7.048  0.00  0.00     0.184 C 
ATOM      5  C4B ACR d         -19.428  -6.461  -7.840  0.00  0.00     0.246 C 
ATOM      6  C5B ACR d         -19.887  -7.555  -6.852  0.00  0.00     0.154 C 
ATOM      7  C6B ACR d         -19.998  -8.924  -7.514  0.00  0.00     0.042 C 
ATOM      8  O5B ACR d         -18.937  -7.662  -5.761  0.00  0.00    -0.351 OA
BRANCH   3   9
ATOM      9  O2B ACR d         -18.056  -4.183  -5.182  0.00  0.00    -0.388 OA
ATOM     10  H22 ACR d         -18.719  -3.560  -5.456  0.00  0.00     0.210 HD
ENDBRANCH   3   9
BRANCH   4  11
ATOM     11  O3B ACR d         -18.781  -4.160  -7.945  0.00  0.00    -0.391 OA
ATOM     12  H23 ACR d         -17.834  -4.195  -8.008  0.00  0.00     0.210 HD
ENDBRANCH   4  11
BRANCH   5  13
ATOM     13  N4B ACR d         -20.273  -6.267  -9.038  0.00  0.00    -0.056 N 
ATOM     14  H20 ACR d         -20.887  -7.064  -9.103  0.00  0.00     0.278 HD
ATOM     15  H21 ACR d         -20.819  -5.433  -8.886  0.00  0.00     0.278 HD
BRANCH  13  16
ATOM     16  C1A ACR d         -19.603  -6.119 -10.359  0.00  0.00     0.240 C 
ATOM     17  C2A ACR d         -20.528  -5.730 -11.530  0.00  0.00     0.184 C 
ATOM     18  C3A ACR d         -21.421  -6.915 -11.899  0.00  0.00     0.182 C 
ATOM     19  C4A ACR d         -20.550  -8.008 -12.489  0.00  0.00     0.180 C 
ATOM     20  C5A ACR d         -19.319  -8.251 -11.640  0.00  0.00    -0.027 C 
ATOM     21  C7A ACR d         -18.815  -7.357 -10.775  0.00  0.00     0.016 C 
BRANCH  17  22
ATOM     22  O2A ACR d         -21.351  -4.627 -11.176  0.00  0.00    -0.390 OA
ATOM     23  H8  ACR d         -20.829  -3.833 -11.171  0.00  0.00     0.210 HD
ENDBRANCH  17  22
BRANCH  18  24
ATOM     24  O3A ACR d         -22.557  -6.609 -12.782  0.00  0.00    -0.390 OA
ATOM     25  H9  ACR d         -23.068  -5.902 -12.406  0.00  0.00     0.210 HD
ENDBRANCH  18  24
BRANCH  19  26
ATOM     26  O4A ACR d         -21.313  -9.210 -12.579  0.00  0.00    -0.388 OA
ATOM     27  H10 ACR d         -21.427  -9.445 -13.493  0.00  0.00     0.210 HD
ENDBRANCH  19  26
BRANCH  20  28
ATOM     28  C6A ACR d         -18.638  -9.568 -11.847  0.00  0.00     0.201 C 
BRANCH  28  29
ATOM     29  O6A ACR d         -17.766  -9.305 -12.963  0.00  0.00    -0.397 OA
ATOM     30  H11 ACR d         -17.739  -8.370 -13.129  0.00  0.00     0.209 HD
ENDBRANCH  28  29
ENDBRANCH  20  28
ENDBRANCH  13  16
ENDBRANCH   5  13
ENDBRANCH   1   2
BRANCH   1  31
ATOM     31  C4C ACR d         -19.851  -6.082  -2.876  0.00  0.00     0.187 C 
ATOM     32  C3C ACR d         -20.268  -4.702  -2.367  0.00  0.00     0.183 C 
ATOM     33  C2C ACR d         -20.526  -4.662  -0.858  0.00  0.00     0.204 C 
ATOM     34  C1C ACR d         -21.428  -5.802  -0.397  0.00  0.00     0.292 C 
ATOM     35  O5C ACR d         -20.905  -7.044  -0.899  0.00  0.00    -0.348 OA
ATOM     36  C5C ACR d         -20.800  -7.156  -2.333  0.00  0.00     0.180 C 
BRANCH  32  37
ATOM     37  O3C ACR d         -19.281  -3.733  -2.741  0.00  0.00    -0.390 OA
ATOM     38  H32 ACR d         -19.713  -2.947  -3.055  0.00  0.00     0.210 HD
ENDBRANCH  32  37
BRANCH  33  39
ATOM     39  O2C ACR d         -21.208  -3.441  -0.599  0.00  0.00    -0.388 OA
ATOM     40  H31 ACR d         -20.842  -2.753  -1.145  0.00  0.00     0.210 HD
ENDBRANCH  33  39
BRANCH  34  41
ATOM     41  O4D ACR d         -22.753  -5.595  -0.904  0.00  0.00    -0.348 OA
BRANCH  41  42
ATOM     42  C4D ACR d         -23.858  -6.003  -0.085  0.00  0.00     0.187 C 
ATOM     43  C3D ACR d         -24.603  -4.699   0.216  0.00  0.00     0.183 C 
ATOM     44  C2D ACR d         -25.918  -4.906   0.977  0.00  0.00     0.204 C 
ATOM     45  C1D ACR d         -26.795  -6.042   0.388  0.00  0.00     0.288 C 
ATOM     46  O5D ACR d         -26.036  -7.197  -0.028  0.00  0.00    -0.349 OA
ATOM     47  C5D ACR d         -24.844  -6.951  -0.809  0.00  0.00     0.180 C 
BRANCH  43  48
ATOM     48  O3D ACR d         -23.745  -3.777   0.920  0.00  0.00    -0.390 OA
ATOM     49  H43 ACR d         -23.707  -2.956   0.444  0.00  0.00     0.210 HD
ENDBRANCH  43  48
BRANCH  44  50
ATOM     50  O2D ACR d         -26.615  -3.644   0.991  0.00  0.00    -0.388 OA
ATOM     51  H42 ACR d         -26.612  -3.273   0.117  0.00  0.00     0.210 HD
ENDBRANCH  44  50
BRANCH  45  52
ATOM     52  O1D ACR d         -27.606  -5.577  -0.706  0.00  0.00    -0.369 OA
ATOM     53  H41 ACR d         -28.510  -5.827  -0.557  0.00  0.00     0.212 HD
ENDBRANCH  45  52
BRANCH  47  54
ATOM     54  C6D ACR d         -24.244  -8.303  -1.208  0.00  0.00     0.198 C 
BRANCH  54  55
ATOM     55  O6D ACR d         -23.276  -8.699  -0.220  0.00  0.00    -0.398 OA
ATOM     56  H44 ACR d         -23.172  -9.643  -0.241  0.00  0.00     0.209 HD
ENDBRANCH  54  55
ENDBRANCH  47  54
ENDBRANCH  41  42
ENDBRANCH  34  41
BRANCH  36  57
ATOM     57  C6C ACR d         -20.349  -8.571  -2.680  0.00  0.00     0.198 C 
BRANCH  57  58
ATOM     58  O6C ACR d         -20.958  -8.983  -3.913  0.00  0.00    -0.398 OA
ATOM     59  H33 ACR d         -21.558  -9.700  -3.744  0.00  0.00     0.209 HD
ENDBRANCH  57  58
ENDBRANCH  36  57
ENDBRANCH   1  31
TORSDOF 22
ENDMDL
MODEL 2
REMARK VINA RESULT:      -7.2      1.683      2.541
REMARK  22 active torsions:
REMARK  status: ('A' for Active; 'I' for Inactive)
REMARK    1  A    between atoms: N4B_18  and  C1A_1 
REMARK    2  A    between atoms: C2A_2  and  O2A_8 
REMARK    3  A    between atoms: C3A_3  and  O3A_9 
REMARK    4  A    between atoms: C4A_4  and  O4A_10 
REMARK    5  A    between atoms: C5A_5  and  C6A_6 
REMARK    6  A    between atoms: C6A_6  and  O6A_11 
REMARK    7  A    between atoms: O4C_30  and  C1B_12 
REMARK    8  A    between atoms: C2B_13  and  O2B_19 
REMARK    9  A    between atoms: C3B_14  and  O3B_20 
REMARK   10  A    between atoms: C4B_15  and  N4B_18 
REMARK   11  A    between atoms: O4D_42  and  C1C_22 
REMARK   12  A    between atoms: C2C_23  and  O2C_28 
REMARK   13  A    between atoms: C3C_24  and  O3C_29 
REMARK   14  A    between atoms: C4C_25  and  O4C_30 
REMARK   15  A    between atoms: C5C_26  and  C6C_27 
REMARK   16  A    between atoms: C6C_27  and  O6C_32 
REMARK   17  A    between atoms: C1D_33  and  O1D_39 
REMARK   18  A    between atoms: C2D_34  and  O2D_40 
REMARK   19  A    between atoms: C3D_35  and  O3D_41 
REMARK   20  A    between atoms: C4D_36  and  O4D_42 
REMARK   21  A    between atoms: C5D_37  and  C6D_38 
REMARK   22  A    between atoms: C6D_38  and  O6D_44 
ROOT
ATOM      1  O4C ACR d         -19.079  -6.251  -4.431  0.00  0.00    -0.348 OA
ENDROOT
BRANCH   1   2
ATOM      2  C1B ACR d         -18.008  -6.717  -5.275  0.00  0.00     0.292 C 
ATOM      3  C2B ACR d         -17.575  -5.595  -6.218  0.00  0.00     0.204 C 
ATOM      4  C3B ACR d         -18.715  -5.242  -7.186  0.00  0.00     0.184 C 
ATOM      5  C4B ACR d         -19.098  -6.470  -8.012  0.00  0.00     0.246 C 
ATOM      6  C5B ACR d         -19.507  -7.589  -7.030  0.00  0.00     0.154 C 
ATOM      7  C6B ACR d         -19.795  -8.907  -7.741  0.00  0.00     0.042 C 
ATOM      8  O5B ACR d         -18.439  -7.821  -6.076  0.00  0.00    -0.351 OA
BRANCH   3   9
ATOM      9  O2B ACR d         -17.249  -4.445  -5.439  0.00  0.00    -0.388 OA
ATOM     10  H22 ACR d         -16.576  -4.671  -4.808  0.00  0.00     0.210 HD
ENDBRANCH   3   9
BRANCH   4  11
ATOM     11  O3B ACR d         -18.309  -4.213  -8.082  0.00  0.00    -0.391 OA
ATOM     12  H23 ACR d         -17.831  -4.597  -8.808  0.00  0.00     0.210 HD
ENDBRANCH   4  11
BRANCH   5  13
ATOM     13  N4B ACR d         -20.069  -6.152  -9.081  0.00  0.00    -0.056 N 
ATOM     14  H20 ACR d         -20.775  -6.872  -9.067  0.00  0.00     0.278 HD
ATOM     15  H21 ACR d         -20.490  -5.266  -8.847  0.00  0.00     0.278 HD
BRANCH  13  16
ATOM     16  C1A ACR d         -19.572  -6.049 -10.479  0.00  0.00     0.240 C 
ATOM     17  C2A ACR d         -20.646  -5.733 -11.541  0.00  0.00     0.184 C 
ATOM     18  C3A ACR d         -21.545  -6.953 -11.746  0.00  0.00     0.182 C 
ATOM     19  C4A ACR d         -20.724  -8.051 -12.394  0.00  0.00     0.180 C 
ATOM     20  C5A ACR d         -19.391  -8.229 -11.696  0.00  0.00    -0.027 C 
ATOM     21  C7A ACR d         -18.808  -7.287 -10.939  0.00  0.00     0.016 C 
BRANCH  17  22
ATOM     22  O2A ACR d         -21.448  -4.634 -11.134  0.00  0.00    -0.390 OA
ATOM     23  H8  ACR d         -21.473  -3.986 -11.828  0.00  0.00     0.210 HD
ENDBRANCH  17  22
BRANCH  18  24
ATOM     24  O3A ACR d         -22.790  -6.712 -12.493  0.00  0.00    -0.390 OA
ATOM     25  H9  ACR d         -23.491  -7.227 -12.112  0.00  0.00     0.210 HD
ENDBRANCH  18  24
BRANCH  19  26
ATOM     26  O4A ACR d         -21.459  -9.273 -12.338  0.00  0.00    -0.388 OA
ATOM     27  H10 ACR d         -22.066  -9.244 -11.607  0.00  0.00     0.210 HD
ENDBRANCH  19  26
BRANCH  20  28
ATOM     28  C6A ACR d         -18.705  -9.539 -11.932  0.00  0.00     0.201 C 
BRANCH  28  29
ATOM     29  O6A ACR d         -17.607  -9.175 -12.791  0.00  0.00    -0.397 OA
ATOM     30  H11 ACR d         -16.923  -9.830 -12.723  0.00  0.00     0.209 HD
ENDBRANCH  28  29
ENDBRANCH  20  28
ENDBRANCH  13  16
ENDBRANCH   5  13
ENDBRANCH   1   2
BRANCH   1  31
ATOM     31  C4C ACR d         -19.041  -6.668  -3.065  0.00  0.00     0.187 C 
ATOM     32  C3C ACR d         -18.279  -5.613  -2.264  0.00  0.00     0.183 C 
ATOM     33  C2C ACR d         -18.384  -5.806  -0.748  0.00  0.00     0.204 C 
ATOM     34  C1C ACR d         -19.824  -6.022  -0.294  0.00  0.00     0.292 C 
ATOM     35  O5C ACR d         -20.413  -7.066  -1.089  0.00  0.00    -0.348 OA
ATOM     36  C5C ACR d         -20.461  -6.831  -2.512  0.00  0.00     0.180 C 
BRANCH  32  37
ATOM     37  O3C ACR d         -16.907  -5.590  -2.680  0.00  0.00    -0.390 OA
ATOM     38  H32 ACR d         -16.470  -6.373  -2.368  0.00  0.00     0.210 HD
ENDBRANCH  32  37
BRANCH  33  39
ATOM     39  O2C ACR d         -17.923  -4.597  -0.156  0.00  0.00    -0.388 OA
ATOM     40  H31 ACR d         -18.629  -3.961  -0.146  0.00  0.00     0.210 HD
ENDBRANCH  33  39
BRANCH  34  41
ATOM     41  O4D ACR d         -20.566  -4.807  -0.465  0.00  0.00    -0.348 OA
BRANCH  41  42
ATOM     42  C4D ACR d         -21.174  -4.221   0.694  0.00  0.00     0.187 C 
ATOM     43  C3D ACR d         -20.886  -2.723   0.550  0.00  0.00     0.183 C 
ATOM     44  C2D ACR d         -21.568  -1.863   1.622  0.00  0.00     0.204 C 
ATOM     45  C1D ACR d         -23.059  -2.227   1.844  0.00  0.00     0.288 C 
ATOM     46  O5D ACR d         -23.313  -3.648   1.819  0.00  0.00    -0.349 OA
ATOM     47  C5D ACR d         -22.709  -4.403   0.743  0.00  0.00     0.180 C 
BRANCH  43  48
ATOM     48  O3D ACR d         -19.465  -2.480   0.528  0.00  0.00    -0.390 OA
ATOM     49  H43 ACR d         -19.009  -3.238   0.873  0.00  0.00     0.210 HD
ENDBRANCH  43  48
BRANCH  44  50
ATOM     50  O2D ACR d         -21.405  -0.483   1.239  0.00  0.00    -0.388 OA
ATOM     51  H42 ACR d         -20.580  -0.157   1.578  0.00  0.00     0.210 HD
ENDBRANCH  44  50
BRANCH  45  52
ATOM     52  O1D ACR d         -23.916  -1.566   0.897  0.00  0.00    -0.369 OA
ATOM     53  H41 ACR d         -23.388  -1.191   0.201  0.00  0.00     0.212 HD
ENDBRANCH  45  52
BRANCH  47  54
ATOM     54  C6D ACR d         -23.171  -5.858   0.860  0.00  0.00     0.198 C 
BRANCH  54  55
ATOM     55  O6D ACR d         -23.290  -6.423  -0.458  0.00  0.00    -0.398 OA
ATOM     56  H44 ACR d         -24.033  -7.013  -0.483  0.00  0.00     0.209 HD
ENDBRANCH  54  55
ENDBRANCH  47  54
ENDBRANCH  41  42
ENDBRANCH  34  41
BRANCH  36  57
ATOM     57  C6C ACR d         -21.223  -7.977  -3.170  0.00  0.00     0.198 C 
BRANCH  57  58
ATOM     58  O6C ACR d         -22.635  -7.774  -3.005  0.00  0.00    -0.398 OA
ATOM     59  H33 ACR d         -22.831  -6.848  -3.077  0.00  0.00     0.209 HD
ENDBRANCH  57  58
ENDBRANCH  36  57
ENDBRANCH   1  31
TORSDOF 22
ENDMDL
MODEL 3
REMARK VINA RESULT:      -7.1      1.189      2.033
REMARK  22 active torsions:
REMARK  status: ('A' for Active; 'I' for Inactive)
REMARK    1  A    between atoms: N4B_18  and  C1A_1 
REMARK    2  A    between atoms: C2A_2  and  O2A_8 
REMARK    3  A    between atoms: C3A_3  and  O3A_9 
REMARK    4  A    between atoms: C4A_4  and  O4A_10 
REMARK    5  A    between atoms: C5A_5  and  C6A_6 
REMARK    6  A    between atoms: C6A_6  and  O6A_11 
REMARK    7  A    between atoms: O4C_30  and  C1B_12 
REMARK    8  A    between atoms: C2B_13  and  O2B_19 
REMARK    9  A    between atoms: C3B_14  and  O3B_20 
REMARK   10  A    between atoms: C4B_15  and  N4B_18 
REMARK   11  A    between atoms: O4D_42  and  C1C_22 
REMARK   12  A    between atoms: C2C_23  and  O2C_28 
REMARK   13  A    between atoms: C3C_24  and  O3C_29 
REMARK   14  A    between atoms: C4C_25  and  O4C_30 
REMARK   15  A    between atoms: C5C_26  and  C6C_27 
REMARK   16  A    between atoms: C6C_27  and  O6C_32 
REMARK   17  A    between atoms: C1D_33  and  O1D_39 
REMARK   18  A    between atoms: C2D_34  and  O2D_40 
REMARK   19  A    between atoms: C3D_35  and  O3D_41 
REMARK   20  A    between atoms: C4D_36  and  O4D_42 
REMARK   21  A    between atoms: C5D_37  and  C6D_38 
REMARK   22  A    between atoms: C6D_38  and  O6D_44 
ROOT
ATOM      1  O4C ACR d         -19.740  -6.156  -4.404  0.00  0.00    -0.348 OA
ENDROOT
BRANCH   1   2
ATOM      2  C1B ACR d         -18.573  -6.598  -5.126  0.00  0.00     0.292 C 
ATOM      3  C2B ACR d         -18.095  -5.485  -6.057  0.00  0.00     0.204 C 
ATOM      4  C3B ACR d         -19.149  -5.208  -7.141  0.00  0.00     0.184 C 
ATOM      5  C4B ACR d         -19.399  -6.474  -7.962  0.00  0.00     0.246 C 
ATOM      6  C5B ACR d         -19.856  -7.582  -6.989  0.00  0.00     0.154 C 
ATOM      7  C6B ACR d         -20.021  -8.930  -7.683  0.00  0.00     0.042 C 
ATOM      8  O5B ACR d         -18.878  -7.742  -5.930  0.00  0.00    -0.351 OA
BRANCH   3   9
ATOM      9  O2B ACR d         -17.894  -4.302  -5.287  0.00  0.00    -0.388 OA
ATOM     10  H22 ACR d         -17.246  -4.469  -4.613  0.00  0.00     0.210 HD
ENDBRANCH   3   9
BRANCH   4  11
ATOM     11  O3B ACR d         -18.698  -4.187  -8.025  0.00  0.00    -0.391 OA
ATOM     12  H23 ACR d         -18.994  -3.342  -7.708  0.00  0.00     0.210 HD
ENDBRANCH   4  11
BRANCH   5  13
ATOM     13  N4B ACR d         -20.273  -6.226  -9.129  0.00  0.00    -0.056 N 
ATOM     14  H20 ACR d         -20.934  -6.987  -9.173  0.00  0.00     0.278 HD
ATOM     15  H21 ACR d         -20.766  -5.364  -8.955  0.00  0.00     0.278 HD
BRANCH  13  16
ATOM     16  C1A ACR d         -19.643  -6.111 -10.471  0.00  0.00     0.240 C 
ATOM     17  C2A ACR d         -20.600  -5.733 -11.621  0.00  0.00     0.184 C 
ATOM     18  C3A ACR d         -21.517  -6.915 -11.940  0.00  0.00     0.182 C 
ATOM     19  C4A ACR d         -20.676  -8.028 -12.535  0.00  0.00     0.180 C 
ATOM     20  C5A ACR d         -19.423  -8.269 -11.721  0.00  0.00    -0.027 C 
ATOM     21  C7A ACR d         -18.882  -7.366 -10.889  0.00  0.00     0.016 C 
BRANCH  17  22
ATOM     22  O2A ACR d         -21.400  -4.615 -11.263  0.00  0.00    -0.390 OA
ATOM     23  H8  ACR d         -21.976  -4.394 -11.985  0.00  0.00     0.210 HD
ENDBRANCH  17  22
BRANCH  18  24
ATOM     24  O3A ACR d         -22.677  -6.612 -12.793  0.00  0.00    -0.390 OA
ATOM     25  H9  ACR d         -23.378  -7.224 -12.601  0.00  0.00     0.210 HD
ENDBRANCH  18  24
BRANCH  19  26
ATOM     26  O4A ACR d         -21.455  -9.223 -12.579  0.00  0.00    -0.388 OA
ATOM     27  H10 ACR d         -20.959  -9.938 -12.197  0.00  0.00     0.210 HD
ENDBRANCH  19  26
BRANCH  20  28
ATOM     28  C6A ACR d         -18.763  -9.598 -11.923  0.00  0.00     0.201 C 
BRANCH  28  29
ATOM     29  O6A ACR d         -17.682  -9.284 -12.823  0.00  0.00    -0.397 OA
ATOM     30  H11 ACR d         -16.919  -9.801 -12.592  0.00  0.00     0.209 HD
ENDBRANCH  28  29
ENDBRANCH  20  28
ENDBRANCH  13  16
ENDBRANCH   5  13
ENDBRANCH   1   2
BRANCH   1  31
ATOM     31  C4C ACR d         -19.839  -6.570  -3.041  0.00  0.00     0.187 C 
ATOM     32  C3C ACR d         -19.833  -5.320  -2.160  0.00  0.00     0.183 C 
ATOM     33  C2C ACR d         -20.191  -5.604  -0.698  0.00  0.00     0.204 C 
ATOM     34  C1C ACR d         -21.448  -6.459  -0.568  0.00  0.00     0.292 C 
ATOM     35  O5C ACR d         -21.310  -7.621  -1.404  0.00  0.00    -0.348 OA
ATOM     36  C5C ACR d         -21.125  -7.372  -2.813  0.00  0.00     0.180 C 
BRANCH  32  37
ATOM     37  O3C ACR d         -18.559  -4.671  -2.255  0.00  0.00    -0.390 OA
ATOM     38  H32 ACR d         -18.269  -4.676  -3.159  0.00  0.00     0.210 HD
ENDBRANCH  32  37
BRANCH  33  39
ATOM     39  O2C ACR d         -20.464  -4.342  -0.100  0.00  0.00    -0.388 OA
ATOM     40  H31 ACR d         -20.949  -3.801  -0.713  0.00  0.00     0.210 HD
ENDBRANCH  33  39
BRANCH  34  41
ATOM     41  O4D ACR d         -22.588  -5.696  -0.984  0.00  0.00    -0.348 OA
BRANCH  41  42
ATOM     42  C4D ACR d         -23.835  -5.930  -0.315  0.00  0.00     0.187 C 
ATOM     43  C3D ACR d         -24.218  -7.355  -0.727  0.00  0.00     0.183 C 
ATOM     44  C2D ACR d         -25.469  -7.883  -0.014  0.00  0.00     0.204 C 
ATOM     45  C1D ACR d         -25.461  -7.622   1.515  0.00  0.00     0.288 C 
ATOM     46  O5D ACR d         -24.946  -6.322   1.873  0.00  0.00    -0.349 OA
ATOM     47  C5D ACR d         -23.720  -5.902   1.228  0.00  0.00     0.180 C 
BRANCH  43  48
ATOM     48  O3D ACR d         -24.370  -7.445  -2.159  0.00  0.00    -0.390 OA
ATOM     49  H43 ACR d         -25.269  -7.672  -2.367  0.00  0.00     0.210 HD
ENDBRANCH  43  48
BRANCH  44  50
ATOM     50  O2D ACR d         -25.581  -9.288  -0.317  0.00  0.00    -0.388 OA
ATOM     51  H42 ACR d         -25.302  -9.441  -1.212  0.00  0.00     0.210 HD
ENDBRANCH  44  50
BRANCH  45  52
ATOM     52  O1D ACR d         -24.735  -8.641   2.226  0.00  0.00    -0.369 OA
ATOM     53  H41 ACR d         -23.957  -8.875   1.734  0.00  0.00     0.212 HD
ENDBRANCH  45  52
BRANCH  47  54
ATOM     54  C6D ACR d         -23.315  -4.544   1.807  0.00  0.00     0.198 C 
BRANCH  54  55
ATOM     55  O6D ACR d         -23.104  -3.615   0.729  0.00  0.00    -0.398 OA
ATOM     56  H44 ACR d         -22.319  -3.857   0.252  0.00  0.00     0.209 HD
ENDBRANCH  54  55
ENDBRANCH  47  54
ENDBRANCH  41  42
ENDBRANCH  34  41
BRANCH  36  57
ATOM     57  C6C ACR d         -21.124  -8.709  -3.548  0.00  0.00     0.198 C 
BRANCH  57  58
ATOM     58  O6C ACR d         -22.471  -9.190  -3.675  0.00  0.00    -0.398 OA
ATOM     59  H33 ACR d         -22.487  -9.928  -4.272  0.00  0.00     0.209 HD
ENDBRANCH  57  58
ENDBRANCH  36  57
ENDBRANCH   1  31
TORSDOF 22
ENDMDL
MODEL 4
REMARK VINA RESULT:      -7.0      3.113      5.357
REMARK  22 active torsions:
REMARK  status: ('A' for Active; 'I' for Inactive)
REMARK    1  A    between atoms: N4B_18  and  C1A_1 
REMARK    2  A    between atoms: C2A_2  and  O2A_8 
REMARK    3  A    between atoms: C3A_3  and  O3A_9 
REMARK    4  A    between atoms: C4A_4  and  O4A_10 
REMARK    5  A    between atoms: C5A_5  and  C6A_6 
REMARK    6  A    between atoms: C6A_6  and  O6A_11 
REMARK    7  A    between atoms: O4C_30  and  C1B_12 
REMARK    8  A    between atoms: C2B_13  and  O2B_19 
REMARK    9  A    between atoms: C3B_14  and  O3B_20 
REMARK   10  A    between atoms: C4B_15  and  N4B_18 
REMARK   11  A    between atoms: O4D_42  and  C1C_22 
REMARK   12  A    between atoms: C2C_23  and  O2C_28 
REMARK   13  A    between atoms: C3C_24  and  O3C_29 
REMARK   14  A    between atoms: C4C_25  and  O4C_30 
REMARK   15  A    between atoms: C5C_26  and  C6C_27 
REMARK   16  A    between atoms: C6C_27  and  O6C_32 
REMARK   17  A    between atoms: C1D_33  and  O1D_39 
REMARK   18  A    between atoms: C2D_34  and  O2D_40 
REMARK   19  A    between atoms: C3D_35  and  O3D_41 
REMARK   20  A    between atoms: C4D_36  and  O4D_42 
REMARK   21  A    between atoms: C5D_37  and  C6D_38 
REMARK   22  A    between atoms: C6D_38  and  O6D_44 
ROOT
ATOM      1  O4C ACR d         -19.565  -6.113  -4.324  0.00  0.00    -0.348 OA
ENDROOT
BRANCH   1   2
ATOM      2  C1B ACR d         -18.375  -6.448  -5.067  0.00  0.00     0.292 C 
ATOM      3  C2B ACR d         -18.021  -5.300  -6.011  0.00  0.00     0.204 C 
ATOM      4  C3B ACR d         -19.116  -5.128  -7.076  0.00  0.00     0.184 C 
ATOM      5  C4B ACR d         -19.262  -6.417  -7.887  0.00  0.00     0.246 C 
ATOM      6  C5B ACR d         -19.595  -7.557  -6.902  0.00  0.00     0.154 C 
ATOM      7  C6B ACR d         -19.645  -8.919  -7.587  0.00  0.00     0.042 C 
ATOM      8  O5B ACR d         -18.587  -7.619  -5.861  0.00  0.00    -0.351 OA
BRANCH   3   9
ATOM      9  O2B ACR d         -17.918  -4.099  -5.249  0.00  0.00    -0.388 OA
ATOM     10  H22 ACR d         -18.177  -4.270  -4.352  0.00  0.00     0.210 HD
ENDBRANCH   3   9
BRANCH   4  11
ATOM     11  O3B ACR d         -18.780  -4.075  -7.972  0.00  0.00    -0.391 OA
ATOM     12  H23 ACR d         -18.137  -3.506  -7.564  0.00  0.00     0.210 HD
ENDBRANCH   4  11
BRANCH   5  13
ATOM     13  N4B ACR d         -20.177  -6.259  -9.038  0.00  0.00    -0.056 N 
ATOM     14  H20 ACR d         -20.780  -7.067  -9.053  0.00  0.00     0.278 HD
ATOM     15  H21 ACR d         -20.729  -5.432  -8.869  0.00  0.00     0.278 HD
BRANCH  13  16
ATOM     16  C1A ACR d         -19.586  -6.124 -10.397  0.00  0.00     0.240 C 
ATOM     17  C2A ACR d         -20.577  -5.736 -11.514  0.00  0.00     0.184 C 
ATOM     18  C3A ACR d         -21.499  -6.917 -11.821  0.00  0.00     0.182 C 
ATOM     19  C4A ACR d         -20.672  -8.020 -12.454  0.00  0.00     0.180 C 
ATOM     20  C5A ACR d         -19.394  -8.266 -11.679  0.00  0.00    -0.027 C 
ATOM     21  C7A ACR d         -18.833  -7.371 -10.852  0.00  0.00     0.016 C 
BRANCH  17  22
ATOM     22  O2A ACR d         -21.370  -4.625 -11.118  0.00  0.00    -0.390 OA
ATOM     23  H8  ACR d         -20.812  -3.961 -10.729  0.00  0.00     0.210 HD
ENDBRANCH  17  22
BRANCH  18  24
ATOM     24  O3A ACR d         -22.684  -6.608 -12.636  0.00  0.00    -0.390 OA
ATOM     25  H9  ACR d         -23.143  -7.414 -12.843  0.00  0.00     0.210 HD
ENDBRANCH  18  24
BRANCH  19  26
ATOM     26  O4A ACR d         -21.447  -9.217 -12.490  0.00  0.00    -0.388 OA
ATOM     27  H10 ACR d         -21.889  -9.282 -13.329  0.00  0.00     0.210 HD
ENDBRANCH  19  26
BRANCH  20  28
ATOM     28  C6A ACR d         -18.736  -9.589 -11.917  0.00  0.00     0.201 C 
BRANCH  28  29
ATOM     29  O6A ACR d         -17.706  -9.266 -12.872  0.00  0.00    -0.397 OA
ATOM     30  H11 ACR d         -17.997  -9.507 -13.744  0.00  0.00     0.209 HD
ENDBRANCH  28  29
ENDBRANCH  20  28
ENDBRANCH  13  16
ENDBRANCH   5  13
ENDBRANCH   1   2
BRANCH   1  31
ATOM     31  C4C ACR d         -19.469  -6.188  -2.902  0.00  0.00     0.187 C 
ATOM     32  C3C ACR d         -18.259  -7.053  -2.548  0.00  0.00     0.183 C 
ATOM     33  C2C ACR d         -17.890  -7.006  -1.062  0.00  0.00     0.204 C 
ATOM     34  C1C ACR d         -17.819  -5.578  -0.531  0.00  0.00     0.292 C 
ATOM     35  O5C ACR d         -19.030  -4.888  -0.886  0.00  0.00    -0.348 OA
ATOM     36  C5C ACR d         -19.314  -4.788  -2.297  0.00  0.00     0.180 C 
BRANCH  32  37
ATOM     37  O3C ACR d         -18.492  -8.403  -2.973  0.00  0.00    -0.390 OA
ATOM     38  H32 ACR d         -18.083  -8.542  -3.818  0.00  0.00     0.210 HD
ENDBRANCH  32  37
BRANCH  33  39
ATOM     39  O2C ACR d         -16.589  -7.572  -0.954  0.00  0.00    -0.388 OA
ATOM     40  H31 ACR d         -16.053  -7.025  -0.390  0.00  0.00     0.210 HD
ENDBRANCH  33  39
BRANCH  34  41
ATOM     41  O4D ACR d         -16.692  -4.909  -1.112  0.00  0.00    -0.348 OA
BRANCH  41  42
ATOM     42  C4D ACR d         -15.969  -3.977  -0.296  0.00  0.00     0.187 C 
ATOM     43  C3D ACR d         -16.946  -2.812  -0.104  0.00  0.00     0.183 C 
ATOM     44  C2D ACR d         -16.434  -1.738   0.863  0.00  0.00     0.204 C 
ATOM     45  C1D ACR d         -15.843  -2.323   2.173  0.00  0.00     0.288 C 
ATOM     46  O5D ACR d         -15.054  -3.513   1.966  0.00  0.00    -0.349 OA
ATOM     47  C5D ACR d         -15.616  -4.530   1.105  0.00  0.00     0.180 C 
BRANCH  43  48
ATOM     48  O3D ACR d         -17.295  -2.230  -1.377  0.00  0.00    -0.390 OA
ATOM     49  H43 ACR d         -17.848  -1.471  -1.235  0.00  0.00     0.210 HD
ENDBRANCH  43  48
BRANCH  44  50
ATOM     50  O2D ACR d         -17.526  -0.834   1.125  0.00  0.00    -0.388 OA
ATOM     51  H42 ACR d         -18.079  -1.197   1.807  0.00  0.00     0.210 HD
ENDBRANCH  44  50
BRANCH  45  52
ATOM     52  O1D ACR d         -16.868  -2.586   3.148  0.00  0.00    -0.369 OA
ATOM     53  H41 ACR d         -17.717  -2.576   2.724  0.00  0.00     0.212 HD
ENDBRANCH  45  52
BRANCH  47  54
ATOM     54  C6D ACR d         -14.660  -5.727   1.090  0.00  0.00     0.198 C 
BRANCH  54  55
ATOM     55  O6D ACR d         -14.199  -5.946  -0.256  0.00  0.00    -0.398 OA
ATOM     56  H44 ACR d         -13.593  -6.677  -0.267  0.00  0.00     0.209 HD
ENDBRANCH  54  55
ENDBRANCH  47  54
ENDBRANCH  41  42
ENDBRANCH  34  41
BRANCH  36  57
ATOM     57  C6C ACR d         -20.557  -3.924  -2.484  0.00  0.00     0.198 C 
BRANCH  57  58
ATOM     58  O6C ACR d         -21.595  -4.700  -3.103  0.00  0.00    -0.398 OA
ATOM     59  H33 ACR d         -21.220  -5.490  -3.474  0.00  0.00     0.209 HD
ENDBRANCH  57  58
ENDBRANCH  36  57
ENDBRANCH   1  31
TORSDOF 22
ENDMDL
MODEL 5
REMARK VINA RESULT:      -7.0      2.572      4.337
REMARK  22 active torsions:
REMARK  status: ('A' for Active; 'I' for Inactive)
REMARK    1  A    between atoms: N4B_18  and  C1A_1 
REMARK    2  A    between atoms: C2A_2  and  O2A_8 
REMARK    3  A    between atoms: C3A_3  and  O3A_9 
REMARK    4  A    between atoms: C4A_4  and  O4A_10 
REMARK    5  A    between atoms: C5A_5  and  C6A_6 
REMARK    6  A    between atoms: C6A_6  and  O6A_11 
REMARK    7  A    between atoms: O4C_30  and  C1B_12 
REMARK    8  A    between atoms: C2B_13  and  O2B_19 
REMARK    9  A    between atoms: C3B_14  and  O3B_20 
REMARK   10  A    between atoms: C4B_15  and  N4B_18 
REMARK   11  A    between atoms: O4D_42  and  C1C_22 
REMARK   12  A    between atoms: C2C_23  and  O2C_28 
REMARK   13  A    between atoms: C3C_24  and  O3C_29 
REMARK   14  A    between atoms: C4C_25  and  O4C_30 
REMARK   15  A    between atoms: C5C_26  and  C6C_27 
REMARK   16  A    between atoms: C6C_27  and  O6C_32 
REMARK   17  A    between atoms: C1D_33  and  O1D_39 
REMARK   18  A    between atoms: C2D_34  and  O2D_40 
REMARK   19  A    between atoms: C3D_35  and  O3D_41 
REMARK   20  A    between atoms: C4D_36  and  O4D_42 
REMARK   21  A    between atoms: C5D_37  and  C6D_38 
REMARK   22  A    between atoms: C6D_38  and  O6D_44 
ROOT
ATOM      1  O4C ACR d         -19.389  -6.219  -4.344  0.00  0.00    -0.348 OA
ENDROOT
BRANCH   1   2
ATOM      2  C1B ACR d         -18.197  -6.468  -5.117  0.00  0.00     0.292 C 
ATOM      3  C2B ACR d         -17.933  -5.284  -6.046  0.00  0.00     0.204 C 
ATOM      4  C3B ACR d         -19.059  -5.160  -7.085  0.00  0.00     0.184 C 
ATOM      5  C4B ACR d         -19.145  -6.440  -7.917  0.00  0.00     0.246 C 
ATOM      6  C5B ACR d         -19.389  -7.616  -6.948  0.00  0.00     0.154 C 
ATOM      7  C6B ACR d         -19.373  -8.966  -7.658  0.00  0.00     0.042 C 
ATOM      8  O5B ACR d         -18.357  -7.636  -5.929  0.00  0.00    -0.351 OA
BRANCH   3   9
ATOM      9  O2B ACR d         -17.885  -4.093  -5.264  0.00  0.00    -0.388 OA
ATOM     10  H22 ACR d         -17.598  -4.305  -4.383  0.00  0.00     0.210 HD
ENDBRANCH   3   9
BRANCH   4  11
ATOM     11  O3B ACR d         -18.805  -4.072  -7.968  0.00  0.00    -0.391 OA
ATOM     12  H23 ACR d         -17.868  -3.947  -8.053  0.00  0.00     0.210 HD
ENDBRANCH   4  11
BRANCH   5  13
ATOM     13  N4B ACR d         -20.093  -6.316  -9.046  0.00  0.00    -0.056 N 
ATOM     14  H20 ACR d         -20.668  -7.145  -9.045  0.00  0.00     0.278 HD
ATOM     15  H21 ACR d         -20.668  -5.509  -8.866  0.00  0.00     0.278 HD
BRANCH  13  16
ATOM     16  C1A ACR d         -19.540  -6.166 -10.419  0.00  0.00     0.240 C 
ATOM     17  C2A ACR d         -20.563  -5.771 -11.504  0.00  0.00     0.184 C 
ATOM     18  C3A ACR d         -21.488  -6.953 -11.798  0.00  0.00     0.182 C 
ATOM     19  C4A ACR d         -20.674  -8.046 -12.464  0.00  0.00     0.180 C 
ATOM     20  C5A ACR d         -19.375  -8.295 -11.727  0.00  0.00    -0.027 C 
ATOM     21  C7A ACR d         -18.795  -7.405 -10.907  0.00  0.00     0.016 C 
BRANCH  17  22
ATOM     22  O2A ACR d         -21.348  -4.667 -11.077  0.00  0.00    -0.390 OA
ATOM     23  H8  ACR d         -21.616  -4.158 -11.833  0.00  0.00     0.210 HD
ENDBRANCH  17  22
BRANCH  18  24
ATOM     24  O3A ACR d         -22.696  -6.641 -12.578  0.00  0.00    -0.390 OA
ATOM     25  H9  ACR d         -23.404  -6.416 -11.986  0.00  0.00     0.210 HD
ENDBRANCH  18  24
BRANCH  19  26
ATOM     26  O4A ACR d         -21.446  -9.246 -12.491  0.00  0.00    -0.388 OA
ATOM     27  H10 ACR d         -21.933  -9.327 -11.679  0.00  0.00     0.210 HD
ENDBRANCH  19  26
BRANCH  20  28
ATOM     28  C6A ACR d         -18.718  -9.613 -11.996  0.00  0.00     0.201 C 
BRANCH  28  29
ATOM     29  O6A ACR d         -17.633  -9.256 -12.874  0.00  0.00    -0.397 OA
ATOM     30  H11 ACR d         -17.404  -8.344 -12.738  0.00  0.00     0.209 HD
ENDBRANCH  28  29
ENDBRANCH  20  28
ENDBRANCH  13  16
ENDBRANCH   5  13
ENDBRANCH   1   2
BRANCH   1  31
ATOM     31  C4C ACR d         -19.222  -6.132  -2.929  0.00  0.00     0.187 C 
ATOM     32  C3C ACR d         -17.801  -5.646  -2.643  0.00  0.00     0.183 C 
ATOM     33  C2C ACR d         -17.571  -5.264  -1.178  0.00  0.00     0.204 C 
ATOM     34  C1C ACR d         -18.668  -4.349  -0.642  0.00  0.00     0.292 C 
ATOM     35  O5C ACR d         -19.948  -4.938  -0.930  0.00  0.00    -0.348 OA
ATOM     36  C5C ACR d         -20.245  -5.163  -2.324  0.00  0.00     0.180 C 
BRANCH  32  37
ATOM     37  O3C ACR d         -16.859  -6.641  -3.063  0.00  0.00    -0.390 OA
ATOM     38  H32 ACR d         -16.734  -6.579  -4.003  0.00  0.00     0.210 HD
ENDBRANCH  32  37
BRANCH  33  39
ATOM     39  O2C ACR d         -16.348  -4.538  -1.139  0.00  0.00    -0.388 OA
ATOM     40  H31 ACR d         -15.699  -5.038  -0.658  0.00  0.00     0.210 HD
ENDBRANCH  33  39
BRANCH  34  41
ATOM     41  O4D ACR d         -18.571  -3.067  -1.275  0.00  0.00    -0.348 OA
BRANCH  41  42
ATOM     42  C4D ACR d         -18.912  -1.907  -0.503  0.00  0.00     0.187 C 
ATOM     43  C3D ACR d         -20.410  -2.072  -0.224  0.00  0.00     0.183 C 
ATOM     44  C2D ACR d         -20.978  -1.002   0.717  0.00  0.00     0.204 C 
ATOM     45  C1D ACR d         -20.099  -0.759   1.972  0.00  0.00     0.288 C 
ATOM     46  O5D ACR d         -18.683  -0.765   1.691  0.00  0.00    -0.349 OA
ATOM     47  C5D ACR d         -18.184  -1.839   0.860  0.00  0.00     0.180 C 
BRANCH  43  48
ATOM     48  O3D ACR d         -21.154  -2.114  -1.459  0.00  0.00    -0.390 OA
ATOM     49  H43 ACR d         -20.720  -1.571  -2.107  0.00  0.00     0.210 HD
ENDBRANCH  43  48
BRANCH  44  50
ATOM     50  O2D ACR d         -22.317  -1.403   1.071  0.00  0.00    -0.388 OA
ATOM     51  H42 ACR d         -22.284  -2.223   1.550  0.00  0.00     0.210 HD
ENDBRANCH  44  50
BRANCH  45  52
ATOM     52  O1D ACR d         -20.388  -1.704   3.017  0.00  0.00    -0.369 OA
ATOM     53  H41 ACR d         -21.230  -1.497   3.405  0.00  0.00     0.212 HD
ENDBRANCH  45  52
BRANCH  47  54
ATOM     54  C6D ACR d         -16.663  -1.700   0.759  0.00  0.00     0.198 C 
BRANCH  54  55
ATOM     55  O6D ACR d         -16.263  -0.451   1.352  0.00  0.00    -0.398 OA
ATOM     56  H44 ACR d         -15.423  -0.187   0.995  0.00  0.00     0.209 HD
ENDBRANCH  54  55
ENDBRANCH  47  54
ENDBRANCH  41  42
ENDBRANCH  34  41
BRANCH  36  57
ATOM     57  C6C ACR d         -21.679  -5.670  -2.442  0.00  0.00     0.198 C 
BRANCH  57  58
ATOM     58  O6C ACR d         -22.378  -4.911  -3.439  0.00  0.00    -0.398 OA
ATOM     59  H33 ACR d         -21.761  -4.361  -3.907  0.00  0.00     0.209 HD
ENDBRANCH  57  58
ENDBRANCH  36  57
ENDBRANCH   1  31
TORSDOF 22
ENDMDL
MODEL 6
REMARK VINA RESULT:      -7.0      2.039      2.449
REMARK  22 active torsions:
REMARK  status: ('A' for Active; 'I' for Inactive)
REMARK    1  A    between atoms: N4B_18  and  C1A_1 
REMARK    2  A    between atoms: C2A_2  and  O2A_8 
REMARK    3  A    between atoms: C3A_3  and  O3A_9 
REMARK    4  A    between atoms: C4A_4  and  O4A_10 
REMARK    5  A    between atoms: C5A_5  and  C6A_6 
REMARK    6  A    between atoms: C6A_6  and  O6A_11 
REMARK    7  A    between atoms: O4C_30  and  C1B_12 
REMARK    8  A    between atoms: C2B_13  and  O2B_19 
REMARK    9  A    between atoms: C3B_14  and  O3B_20 
REMARK   10  A    between atoms: C4B_15  and  N4B_18 
REMARK   11  A    between atoms: O4D_42  and  C1C_22 
REMARK   12  A    between atoms: C2C_23  and  O2C_28 
REMARK   13  A    between atoms: C3C_24  and  O3C_29 
REMARK   14  A    between atoms: C4C_25  and  O4C_30 
REMARK   15  A    between atoms: C5C_26  and  C6C_27 
REMARK   16  A    between atoms: C6C_27  and  O6C_32 
REMARK   17  A    between atoms: C1D_33  and  O1D_39 
REMARK   18  A    between atoms: C2D_34  and  O2D_40 
REMARK   19  A    between atoms: C3D_35  and  O3D_41 
REMARK   20  A    between atoms: C4D_36  and  O4D_42 
REMARK   21  A    between atoms: C5D_37  and  C6D_38 
REMARK   22  A    between atoms: C6D_38  and  O6D_44 
ROOT
ATOM      1  O4C ACR d         -19.082  -6.195  -4.455  0.00  0.00    -0.348 OA
ENDROOT
BRANCH   1   2
ATOM      2  C1B ACR d         -17.989  -6.630  -5.288  0.00  0.00     0.292 C 
ATOM      3  C2B ACR d         -17.589  -5.502  -6.238  0.00  0.00     0.204 C 
ATOM      4  C3B ACR d         -18.734  -5.197  -7.217  0.00  0.00     0.184 C 
ATOM      5  C4B ACR d         -19.068  -6.445  -8.034  0.00  0.00     0.246 C 
ATOM      6  C5B ACR d         -19.445  -7.568  -7.045  0.00  0.00     0.154 C 
ATOM      7  C6B ACR d         -19.683  -8.902  -7.746  0.00  0.00     0.042 C 
ATOM      8  O5B ACR d         -18.376  -7.756  -6.083  0.00  0.00    -0.351 OA
BRANCH   3   9
ATOM      9  O2B ACR d         -17.308  -4.335  -5.467  0.00  0.00    -0.388 OA
ATOM     10  H22 ACR d         -16.404  -4.358  -5.177  0.00  0.00     0.210 HD
ENDBRANCH   3   9
BRANCH   4  11
ATOM     11  O3B ACR d         -18.357  -4.162  -8.118  0.00  0.00    -0.391 OA
ATOM     12  H23 ACR d         -17.412  -4.160  -8.219  0.00  0.00     0.210 HD
ENDBRANCH   4  11
BRANCH   5  13
ATOM     13  N4B ACR d         -20.043  -6.168  -9.112  0.00  0.00    -0.056 N 
ATOM     14  H20 ACR d         -20.730  -6.907  -9.090  0.00  0.00     0.278 HD
ATOM     15  H21 ACR d         -20.487  -5.290  -8.895  0.00  0.00     0.278 HD
BRANCH  13  16
ATOM     16  C1A ACR d         -19.542  -6.075 -10.510  0.00  0.00     0.240 C 
ATOM     17  C2A ACR d         -20.606  -5.729 -11.572  0.00  0.00     0.184 C 
ATOM     18  C3A ACR d         -21.537  -6.924 -11.780  0.00  0.00     0.182 C 
ATOM     19  C4A ACR d         -20.744  -8.042 -12.430  0.00  0.00     0.180 C 
ATOM     20  C5A ACR d         -19.418  -8.257 -11.732  0.00  0.00    -0.027 C 
ATOM     21  C7A ACR d         -18.811  -7.332 -10.972  0.00  0.00     0.016 C 
BRANCH  17  22
ATOM     22  O2A ACR d         -21.380  -4.610 -11.162  0.00  0.00    -0.390 OA
ATOM     23  H8  ACR d         -21.056  -3.827 -11.592  0.00  0.00     0.210 HD
ENDBRANCH  17  22
BRANCH  18  24
ATOM     24  O3A ACR d         -22.775  -6.648 -12.527  0.00  0.00    -0.390 OA
ATOM     25  H9  ACR d         -23.087  -7.451 -12.928  0.00  0.00     0.210 HD
ENDBRANCH  18  24
BRANCH  19  26
ATOM     26  O4A ACR d         -21.512  -9.244 -12.378  0.00  0.00    -0.388 OA
ATOM     27  H10 ACR d         -20.926  -9.992 -12.350  0.00  0.00     0.210 HD
ENDBRANCH  19  26
BRANCH  20  28
ATOM     28  C6A ACR d         -18.766  -9.583 -11.970  0.00  0.00     0.201 C 
BRANCH  28  29
ATOM     29  O6A ACR d         -17.663  -9.247 -12.835  0.00  0.00    -0.397 OA
ATOM     30  H11 ACR d         -17.711  -8.326 -13.063  0.00  0.00     0.209 HD
ENDBRANCH  28  29
ENDBRANCH  20  28
ENDBRANCH  13  16
ENDBRANCH   5  13
ENDBRANCH   1   2
BRANCH   1  31
ATOM     31  C4C ACR d         -18.775  -5.213  -3.464  0.00  0.00     0.187 C 
ATOM     32  C3C ACR d         -19.908  -4.187  -3.440  0.00  0.00     0.183 C 
ATOM     33  C2C ACR d         -19.834  -3.225  -2.251  0.00  0.00     0.204 C 
ATOM     34  C1C ACR d         -19.621  -3.957  -0.930  0.00  0.00     0.292 C 
ATOM     35  O5C ACR d         -18.504  -4.852  -1.068  0.00  0.00    -0.348 OA
ATOM     36  C5C ACR d         -18.624  -5.867  -2.086  0.00  0.00     0.180 C 
BRANCH  32  37
ATOM     37  O3C ACR d         -19.930  -3.465  -4.679  0.00  0.00    -0.390 OA
ATOM     38  H32 ACR d         -20.259  -4.030  -5.367  0.00  0.00     0.210 HD
ENDBRANCH  32  37
BRANCH  33  39
ATOM     39  O2C ACR d         -21.096  -2.572  -2.183  0.00  0.00    -0.388 OA
ATOM     40  H31 ACR d         -20.964  -1.630  -2.169  0.00  0.00     0.210 HD
ENDBRANCH  33  39
BRANCH  34  41
ATOM     41  O4D ACR d         -20.801  -4.702  -0.603  0.00  0.00    -0.348 OA
BRANCH  41  42
ATOM     42  C4D ACR d         -21.140  -4.851   0.783  0.00  0.00     0.187 C 
ATOM     43  C3D ACR d         -22.510  -4.177   0.908  0.00  0.00     0.183 C 
ATOM     44  C2D ACR d         -23.145  -4.334   2.295  0.00  0.00     0.204 C 
ATOM     45  C1D ACR d         -23.074  -5.784   2.843  0.00  0.00     0.288 C 
ATOM     46  O5D ACR d         -21.818  -6.440   2.568  0.00  0.00    -0.349 OA
ATOM     47  C5D ACR d         -21.299  -6.326   1.222  0.00  0.00     0.180 C 
BRANCH  43  48
ATOM     48  O3D ACR d         -22.425  -2.786   0.539  0.00  0.00    -0.390 OA
ATOM     49  H43 ACR d         -21.979  -2.304   1.225  0.00  0.00     0.210 HD
ENDBRANCH  43  48
BRANCH  44  50
ATOM     50  O2D ACR d         -24.504  -3.862   2.206  0.00  0.00    -0.388 OA
ATOM     51  H42 ACR d         -24.624  -3.401   1.383  0.00  0.00     0.210 HD
ENDBRANCH  44  50
BRANCH  45  52
ATOM     52  O1D ACR d         -24.159  -6.592   2.353  0.00  0.00    -0.369 OA
ATOM     53  H41 ACR d         -24.243  -6.473   1.415  0.00  0.00     0.212 HD
ENDBRANCH  45  52
BRANCH  47  54
ATOM     54  C6D ACR d         -20.015  -7.156   1.132  0.00  0.00     0.198 C 
BRANCH  54  55
ATOM     55  O6D ACR d         -18.882  -6.296   1.352  0.00  0.00    -0.398 OA
ATOM     56  H44 ACR d         -18.249  -6.423   0.655  0.00  0.00     0.209 HD
ENDBRANCH  54  55
ENDBRANCH  47  54
ENDBRANCH  41  42
ENDBRANCH  34  41
BRANCH  36  57
ATOM     57  C6C ACR d         -17.412  -6.790  -2.001  0.00  0.00     0.198 C 
BRANCH  57  58
ATOM     58  O6C ACR d         -16.812  -6.678  -0.702  0.00  0.00    -0.398 OA
ATOM     59  H33 ACR d         -17.481  -6.780  -0.035  0.00  0.00     0.209 HD
ENDBRANCH  57  58
ENDBRANCH  36  57
ENDBRANCH   1  31
TORSDOF 22
ENDMDL
MODEL 7
REMARK VINA RESULT:      -6.9      3.024      4.117
REMARK  22 active torsions:
REMARK  status: ('A' for Active; 'I' for Inactive)
REMARK    1  A    between atoms: N4B_18  and  C1A_1 
REMARK    2  A    between atoms: C2A_2  and  O2A_8 
REMARK    3  A    between atoms: C3A_3  and  O3A_9 
REMARK    4  A    between atoms: C4A_4  and  O4A_10 
REMARK    5  A    between atoms: C5A_5  and  C6A_6 
REMARK    6  A    between atoms: C6A_6  and  O6A_11 
REMARK    7  A    between atoms: O4C_30  and  C1B_12 
REMARK    8  A    between atoms: C2B_13  and  O2B_19 
REMARK    9  A    between atoms: C3B_14  and  O3B_20 
REMARK   10  A    between atoms: C4B_15  and  N4B_18 
REMARK   11  A    between atoms: O4D_42  and  C1C_22 
REMARK   12  A    between atoms: C2C_23  and  O2C_28 
REMARK   13  A    between atoms: C3C_24  and  O3C_29 
REMARK   14  A    between atoms: C4C_25  and  O4C_30 
REMARK   15  A    between atoms: C5C_26  and  C6C_27 
REMARK   16  A    between atoms: C6C_27  and  O6C_32 
REMARK   17  A    between atoms: C1D_33  and  O1D_39 
REMARK   18  A    between atoms: C2D_34  and  O2D_40 
REMARK   19  A    between atoms: C3D_35  and  O3D_41 
REMARK   20  A    between atoms: C4D_36  and  O4D_42 
REMARK   21  A    between atoms: C5D_37  and  C6D_38 
REMARK   22  A    between atoms: C6D_38  and  O6D_44 
ROOT
ATOM      1  O4C ACR d         -18.869  -6.121  -4.469  0.00  0.00    -0.348 OA
ENDROOT
BRANCH   1   2
ATOM      2  C1B ACR d         -17.826  -6.611  -5.336  0.00  0.00     0.292 C 
ATOM      3  C2B ACR d         -17.421  -5.515  -6.320  0.00  0.00     0.204 C 
ATOM      4  C3B ACR d         -18.591  -5.183  -7.260  0.00  0.00     0.184 C 
ATOM      5  C4B ACR d         -19.003  -6.431  -8.042  0.00  0.00     0.246 C 
ATOM      6  C5B ACR d         -19.382  -7.523  -7.019  0.00  0.00     0.154 C 
ATOM      7  C6B ACR d         -19.696  -8.858  -7.686  0.00  0.00     0.042 C 
ATOM      8  O5B ACR d         -18.284  -7.734  -6.094  0.00  0.00    -0.351 OA
BRANCH   3   9
ATOM      9  O2B ACR d         -17.069  -4.346  -5.582  0.00  0.00    -0.388 OA
ATOM     10  H22 ACR d         -17.372  -3.575  -6.047  0.00  0.00     0.210 HD
ENDBRANCH   3   9
BRANCH   4  11
ATOM     11  O3B ACR d         -18.212  -4.178  -8.194  0.00  0.00    -0.391 OA
ATOM     12  H23 ACR d         -18.425  -3.322  -7.841  0.00  0.00     0.210 HD
ENDBRANCH   4  11
BRANCH   5  13
ATOM     13  N4B ACR d         -20.007  -6.137  -9.087  0.00  0.00    -0.056 N 
ATOM     14  H20 ACR d         -20.705  -6.864  -9.043  0.00  0.00     0.278 HD
ATOM     15  H21 ACR d         -20.430  -5.253  -8.853  0.00  0.00     0.278 HD
BRANCH  13  16
ATOM     16  C1A ACR d         -19.551  -6.048 -10.500  0.00  0.00     0.240 C 
ATOM     17  C2A ACR d         -20.656  -5.751 -11.534  0.00  0.00     0.184 C 
ATOM     18  C3A ACR d         -21.554  -6.978 -11.699  0.00  0.00     0.182 C 
ATOM     19  C4A ACR d         -20.745  -8.080 -12.357  0.00  0.00     0.180 C 
ATOM     20  C5A ACR d         -19.393  -8.242 -11.696  0.00  0.00    -0.027 C 
ATOM     21  C7A ACR d         -18.793  -7.287 -10.967  0.00  0.00     0.016 C 
BRANCH  17  22
ATOM     22  O2A ACR d         -21.453  -4.651 -11.117  0.00  0.00    -0.390 OA
ATOM     23  H8  ACR d         -21.051  -4.238 -10.362  0.00  0.00     0.210 HD
ENDBRANCH  17  22
BRANCH  18  24
ATOM     24  O3A ACR d         -22.821  -6.753 -12.412  0.00  0.00    -0.390 OA
ATOM     25  H9  ACR d         -23.467  -7.383 -12.115  0.00  0.00     0.210 HD
ENDBRANCH  18  24
BRANCH  19  26
ATOM     26  O4A ACR d         -21.472  -9.305 -12.265  0.00  0.00    -0.388 OA
ATOM     27  H10 ACR d         -20.903  -9.985 -11.924  0.00  0.00     0.210 HD
ENDBRANCH  19  26
BRANCH  20  28
ATOM     28  C6A ACR d         -18.706  -9.551 -11.935  0.00  0.00     0.201 C 
BRANCH  28  29
ATOM     29  O6A ACR d         -17.582  -9.176 -12.755  0.00  0.00    -0.397 OA
ATOM     30  H11 ACR d         -16.826  -9.698 -12.511  0.00  0.00     0.209 HD
ENDBRANCH  28  29
ENDBRANCH  20  28
ENDBRANCH  13  16
ENDBRANCH   5  13
ENDBRANCH   1   2
BRANCH   1  31
ATOM     31  C4C ACR d         -18.571  -4.946  -3.715  0.00  0.00     0.187 C 
ATOM     32  C3C ACR d         -19.841  -4.099  -3.627  0.00  0.00     0.183 C 
ATOM     33  C2C ACR d         -19.732  -2.939  -2.633  0.00  0.00     0.204 C 
ATOM     34  C1C ACR d         -19.180  -3.387  -1.284  0.00  0.00     0.292 C 
ATOM     35  O5C ACR d         -17.967  -4.128  -1.499  0.00  0.00    -0.348 OA
ATOM     36  C5C ACR d         -18.082  -5.316  -2.311  0.00  0.00     0.180 C 
BRANCH  32  37
ATOM     37  O3C ACR d         -20.192  -3.620  -4.932  0.00  0.00    -0.390 OA
ATOM     38  H32 ACR d         -20.970  -3.080  -4.871  0.00  0.00     0.210 HD
ENDBRANCH  32  37
BRANCH  33  39
ATOM     39  O2C ACR d         -21.057  -2.466  -2.421  0.00  0.00    -0.388 OA
ATOM     40  H31 ACR d         -21.652  -3.206  -2.374  0.00  0.00     0.210 HD
ENDBRANCH  33  39
BRANCH  34  41
ATOM     41  O4D ACR d         -20.145  -4.218  -0.626  0.00  0.00    -0.348 OA
BRANCH  41  42
ATOM     42  C4D ACR d         -20.326  -4.051   0.787  0.00  0.00     0.187 C 
ATOM     43  C3D ACR d         -18.925  -4.257   1.371  0.00  0.00     0.183 C 
ATOM     44  C2D ACR d         -18.844  -3.988   2.878  0.00  0.00     0.204 C 
ATOM     45  C1D ACR d         -19.546  -2.672   3.305  0.00  0.00     0.288 C 
ATOM     46  O5D ACR d         -20.793  -2.437   2.617  0.00  0.00    -0.349 OA
ATOM     47  C5D ACR d         -20.796  -2.631   1.183  0.00  0.00     0.180 C 
BRANCH  43  48
ATOM     48  O3D ACR d         -18.436  -5.579   1.060  0.00  0.00    -0.390 OA
ATOM     49  H43 ACR d         -17.571  -5.691   1.436  0.00  0.00     0.210 HD
ENDBRANCH  43  48
BRANCH  44  50
ATOM     50  O2D ACR d         -17.449  -3.995   3.246  0.00  0.00    -0.388 OA
ATOM     51  H42 ACR d         -16.916  -3.949   2.461  0.00  0.00     0.210 HD
ENDBRANCH  44  50
BRANCH  45  52
ATOM     52  O1D ACR d         -18.683  -1.532   3.146  0.00  0.00    -0.369 OA
ATOM     53  H41 ACR d         -17.960  -1.595   3.759  0.00  0.00     0.212 HD
ENDBRANCH  45  52
BRANCH  47  54
ATOM     54  C6D ACR d         -22.182  -2.252   0.652  0.00  0.00     0.198 C 
BRANCH  54  55
ATOM     55  O6D ACR d         -22.051  -1.147  -0.260  0.00  0.00    -0.398 OA
ATOM     56  H44 ACR d         -21.218  -1.209  -0.714  0.00  0.00     0.209 HD
ENDBRANCH  54  55
ENDBRANCH  47  54
ENDBRANCH  41  42
ENDBRANCH  34  41
BRANCH  36  57
ATOM     57  C6C ACR d         -16.735  -6.031  -2.324  0.00  0.00     0.198 C 
BRANCH  57  58
ATOM     58  O6C ACR d         -16.166  -6.011  -1.007  0.00  0.00    -0.398 OA
ATOM     59  H33 ACR d         -16.828  -5.741  -0.381  0.00  0.00     0.209 HD
ENDBRANCH  57  58
ENDBRANCH  36  57
ENDBRANCH   1  31
TORSDOF 22
ENDMDL
MODEL 8
REMARK VINA RESULT:      -6.6      1.727      2.770
REMARK  22 active torsions:
REMARK  status: ('A' for Active; 'I' for Inactive)
REMARK    1  A    between atoms: N4B_18  and  C1A_1 
REMARK    2  A    between atoms: C2A_2  and  O2A_8 
REMARK    3  A    between atoms: C3A_3  and  O3A_9 
REMARK    4  A    between atoms: C4A_4  and  O4A_10 
REMARK    5  A    between atoms: C5A_5  and  C6A_6 
REMARK    6  A    between atoms: C6A_6  and  O6A_11 
REMARK    7  A    between atoms: O4C_30  and  C1B_12 
REMARK    8  A    between atoms: C2B_13  and  O2B_19 
REMARK    9  A    between atoms: C3B_14  and  O3B_20 
REMARK   10  A    between atoms: C4B_15  and  N4B_18 
REMARK   11  A    between atoms: O4D_42  and  C1C_22 
REMARK   12  A    between atoms: C2C_23  and  O2C_28 
REMARK   13  A    between atoms: C3C_24  and  O3C_29 
REMARK   14  A    between atoms: C4C_25  and  O4C_30 
REMARK   15  A    between atoms: C5C_26  and  C6C_27 
REMARK   16  A    between atoms: C6C_27  and  O6C_32 
REMARK   17  A    between atoms: C1D_33  and  O1D_39 
REMARK   18  A    between atoms: C2D_34  and  O2D_40 
REMARK   19  A    between atoms: C3D_35  and  O3D_41 
REMARK   20  A    between atoms: C4D_36  and  O4D_42 
REMARK   21  A    between atoms: C5D_37  and  C6D_38 
REMARK   22  A    between atoms: C6D_38  and  O6D_44 
ROOT
ATOM      1  O4C ACR d         -19.053  -6.092  -4.502  0.00  0.00    -0.348 OA
ENDROOT
BRANCH   1   2
ATOM      2  C1B ACR d         -18.021  -6.651  -5.340  0.00  0.00     0.292 C 
ATOM      3  C2B ACR d         -17.545  -5.597  -6.338  0.00  0.00     0.204 C 
ATOM      4  C3B ACR d         -18.681  -5.227  -7.305  0.00  0.00     0.184 C 
ATOM      5  C4B ACR d         -19.141  -6.469  -8.069  0.00  0.00     0.246 C 
ATOM      6  C5B ACR d         -19.592  -7.520  -7.032  0.00  0.00     0.154 C 
ATOM      7  C6B ACR d         -19.961  -8.851  -7.678  0.00  0.00     0.042 C 
ATOM      8  O5B ACR d         -18.523  -7.766  -6.084  0.00  0.00    -0.351 OA
BRANCH   3   9
ATOM      9  O2B ACR d         -17.147  -4.433  -5.617  0.00  0.00    -0.388 OA
ATOM     10  H22 ACR d         -16.397  -4.640  -5.071  0.00  0.00     0.210 HD
ENDBRANCH   3   9
BRANCH   4  11
ATOM     11  O3B ACR d         -18.236  -4.262  -8.252  0.00  0.00    -0.391 OA
ATOM     12  H23 ACR d         -18.923  -4.102  -8.887  0.00  0.00     0.210 HD
ENDBRANCH   4  11
BRANCH   5  13
ATOM     13  N4B ACR d         -20.112  -6.147  -9.138  0.00  0.00    -0.056 N 
ATOM     14  H20 ACR d         -20.831  -6.853  -9.111  0.00  0.00     0.278 HD
ATOM     15  H21 ACR d         -20.514  -5.250  -8.915  0.00  0.00     0.278 HD
BRANCH  13  16
ATOM     16  C1A ACR d         -19.620  -6.072 -10.540  0.00  0.00     0.240 C 
ATOM     17  C2A ACR d         -20.682  -5.699 -11.595  0.00  0.00     0.184 C 
ATOM     18  C3A ACR d         -21.648  -6.867 -11.791  0.00  0.00     0.182 C 
ATOM     19  C4A ACR d         -20.894  -8.010 -12.444  0.00  0.00     0.180 C 
ATOM     20  C5A ACR d         -19.569  -8.260 -11.756  0.00  0.00    -0.027 C 
ATOM     21  C7A ACR d         -18.929  -7.351 -11.004  0.00  0.00     0.016 C 
BRANCH  17  22
ATOM     22  O2A ACR d         -21.420  -4.556 -11.182  0.00  0.00    -0.390 OA
ATOM     23  H8  ACR d         -21.475  -4.541 -10.234  0.00  0.00     0.210 HD
ENDBRANCH  17  22
BRANCH  18  24
ATOM     24  O3A ACR d         -22.884  -6.558 -12.529  0.00  0.00    -0.390 OA
ATOM     25  H9  ACR d         -23.558  -6.288 -11.917  0.00  0.00     0.210 HD
ENDBRANCH  18  24
BRANCH  19  26
ATOM     26  O4A ACR d         -21.695  -9.189 -12.381  0.00  0.00    -0.388 OA
ATOM     27  H10 ACR d         -21.242  -9.903 -12.816  0.00  0.00     0.210 HD
ENDBRANCH  19  26
BRANCH  20  28
ATOM     28  C6A ACR d         -18.957  -9.606 -11.994  0.00  0.00     0.201 C 
BRANCH  28  29
ATOM     29  O6A ACR d         -17.575  -9.396 -11.647  0.00  0.00    -0.397 OA
ATOM     30  H11 ACR d         -17.507  -9.219 -10.716  0.00  0.00     0.209 HD
ENDBRANCH  28  29
ENDBRANCH  20  28
ENDBRANCH  13  16
ENDBRANCH   5  13
ENDBRANCH   1   2
BRANCH   1  31
ATOM     31  C4C ACR d         -18.956  -6.366  -3.104  0.00  0.00     0.187 C 
ATOM     32  C3C ACR d         -18.321  -5.154  -2.422  0.00  0.00     0.183 C 
ATOM     33  C2C ACR d         -18.393  -5.208  -0.893  0.00  0.00     0.204 C 
ATOM     34  C1C ACR d         -19.793  -5.549  -0.394  0.00  0.00     0.292 C 
ATOM     35  O5C ACR d         -20.257  -6.729  -1.074  0.00  0.00    -0.348 OA
ATOM     36  C5C ACR d         -20.342  -6.642  -2.511  0.00  0.00     0.180 C 
BRANCH  32  37
ATOM     37  O3C ACR d         -16.965  -5.009  -2.863  0.00  0.00    -0.390 OA
ATOM     38  H32 ACR d         -16.863  -5.426  -3.710  0.00  0.00     0.210 HD
ENDBRANCH  32  37
BRANCH  33  39
ATOM     39  O2C ACR d         -18.076  -3.901  -0.429  0.00  0.00    -0.388 OA
ATOM     40  H31 ACR d         -18.741  -3.616   0.188  0.00  0.00     0.210 HD
ENDBRANCH  33  39
BRANCH  34  41
ATOM     41  O4D ACR d         -20.677  -4.454  -0.668  0.00  0.00    -0.348 OA
BRANCH  41  42
ATOM     42  C4D ACR d         -21.643  -4.102   0.332  0.00  0.00     0.187 C 
ATOM     43  C3D ACR d         -22.536  -5.342   0.442  0.00  0.00     0.183 C 
ATOM     44  C2D ACR d         -23.576  -5.249   1.565  0.00  0.00     0.204 C 
ATOM     45  C1D ACR d         -22.986  -4.744   2.908  0.00  0.00     0.288 C 
ATOM     46  O5D ACR d         -22.030  -3.675   2.749  0.00  0.00    -0.349 OA
ATOM     47  C5D ACR d         -21.021  -3.846   1.725  0.00  0.00     0.180 C 
BRANCH  43  48
ATOM     48  O3D ACR d         -23.172  -5.621  -0.822  0.00  0.00    -0.390 OA
ATOM     49  H43 ACR d         -22.510  -5.690  -1.500  0.00  0.00     0.210 HD
ENDBRANCH  43  48
BRANCH  44  50
ATOM     50  O2D ACR d         -24.183  -6.550   1.702  0.00  0.00    -0.388 OA
ATOM     51  H42 ACR d         -25.089  -6.448   1.971  0.00  0.00     0.210 HD
ENDBRANCH  44  50
BRANCH  45  52
ATOM     52  O1D ACR d         -22.395  -5.814   3.666  0.00  0.00    -0.369 OA
ATOM     53  H41 ACR d         -22.709  -5.778   4.562  0.00  0.00     0.212 HD
ENDBRANCH  45  52
BRANCH  47  54
ATOM     54  C6D ACR d         -20.072  -2.645   1.783  0.00  0.00     0.198 C 
BRANCH  54  55
ATOM     55  O6D ACR d         -20.058  -1.993   0.501  0.00  0.00    -0.398 OA
ATOM     56  H44 ACR d         -19.159  -1.841   0.233  0.00  0.00     0.209 HD
ENDBRANCH  54  55
ENDBRANCH  47  54
ENDBRANCH  41  42
ENDBRANCH  34  41
BRANCH  36  57
ATOM     57  C6C ACR d         -20.965  -7.929  -3.042  0.00  0.00     0.198 C 
BRANCH  57  58
ATOM     58  O6C ACR d         -21.671  -7.656  -4.262  0.00  0.00    -0.398 OA
ATOM     59  H33 ACR d         -21.175  -7.996  -4.996  0.00  0.00     0.209 HD
ENDBRANCH  57  58
ENDBRANCH  36  57
ENDBRANCH   1  31
TORSDOF 22
ENDMDL
MODEL 9
REMARK VINA RESULT:      -6.2      3.976      6.675
REMARK  22 active torsions:
REMARK  status: ('A' for Active; 'I' for Inactive)
REMARK    1  A    between atoms: N4B_18  and  C1A_1 
REMARK    2  A    between atoms: C2A_2  and  O2A_8 
REMARK    3  A    between atoms: C3A_3  and  O3A_9 
REMARK    4  A    between atoms: C4A_4  and  O4A_10 
REMARK    5  A    between atoms: C5A_5  and  C6A_6 
REMARK    6  A    between atoms: C6A_6  and  O6A_11 
REMARK    7  A    between atoms: O4C_30  and  C1B_12 
REMARK    8  A    between atoms: C2B_13  and  O2B_19 
REMARK    9  A    between atoms: C3B_14  and  O3B_20 
REMARK   10  A    between atoms: C4B_15  and  N4B_18 
REMARK   11  A    between atoms: O4D_42  and  C1C_22 
REMARK   12  A    between atoms: C2C_23  and  O2C_28 
REMARK   13  A    between atoms: C3C_24  and  O3C_29 
REMARK   14  A    between atoms: C4C_25  and  O4C_30 
REMARK   15  A    between atoms: C5C_26  and  C6C_27 
REMARK   16  A    between atoms: C6C_27  and  O6C_32 
REMARK   17  A    between atoms: C1D_33  and  O1D_39 
REMARK   18  A    between atoms: C2D_34  and  O2D_40 
REMARK   19  A    between atoms: C3D_35  and  O3D_41 
REMARK   20  A    between atoms: C4D_36  and  O4D_42 
REMARK   21  A    between atoms: C5D_37  and  C6D_38 
REMARK   22  A    between atoms: C6D_38  and  O6D_44 
ROOT
ATOM      1  O4C ACR d         -18.347  -5.300  -4.367  0.00  0.00    -0.348 OA
ENDROOT
BRANCH   1   2
ATOM      2  C1B ACR d         -17.628  -5.606  -5.578  0.00  0.00     0.292 C 
ATOM      3  C2B ACR d         -18.616  -5.789  -6.728  0.00  0.00     0.204 C 
ATOM      4  C3B ACR d         -19.506  -7.017  -6.477  0.00  0.00     0.184 C 
ATOM      5  C4B ACR d         -18.642  -8.272  -6.355  0.00  0.00     0.246 C 
ATOM      6  C5B ACR d         -17.641  -8.045  -5.202  0.00  0.00     0.154 C 
ATOM      7  C6B ACR d         -16.643  -9.190  -5.066  0.00  0.00     0.042 C 
ATOM      8  O5B ACR d         -16.891  -6.825  -5.434  0.00  0.00    -0.351 OA
BRANCH   3   9
ATOM      9  O2B ACR d         -19.437  -4.626  -6.813  0.00  0.00    -0.388 OA
ATOM     10  H22 ACR d         -19.283  -4.075  -6.055  0.00  0.00     0.210 HD
ENDBRANCH   3   9
BRANCH   4  11
ATOM     11  O3B ACR d         -20.414  -7.205  -7.557  0.00  0.00    -0.391 OA
ATOM     12  H23 ACR d         -20.155  -6.655  -8.286  0.00  0.00     0.210 HD
ENDBRANCH   4  11
BRANCH   5  13
ATOM     13  N4B ACR d         -19.450  -9.509  -6.284  0.00  0.00    -0.056 N 
ATOM     14  H20 ACR d         -20.316  -9.327  -6.767  0.00  0.00     0.278 HD
ATOM     15  H21 ACR d         -18.938 -10.227  -6.772  0.00  0.00     0.278 HD
BRANCH  13  16
ATOM     16  C1A ACR d         -19.798 -10.050  -4.943  0.00  0.00     0.240 C 
ATOM     17  C2A ACR d         -20.335 -11.496  -4.932  0.00  0.00     0.184 C 
ATOM     18  C3A ACR d         -21.745 -11.528  -5.523  0.00  0.00     0.182 C 
ATOM     19  C4A ACR d         -22.680 -10.799  -4.577  0.00  0.00     0.180 C 
ATOM     20  C5A ACR d         -22.097  -9.473  -4.138  0.00  0.00    -0.027 C 
ATOM     21  C7A ACR d         -20.789  -9.176  -4.180  0.00  0.00     0.016 C 
BRANCH  17  22
ATOM     22  O2A ACR d         -19.496 -12.350  -5.696  0.00  0.00    -0.390 OA
ATOM     23  H8  ACR d         -19.006 -11.832  -6.324  0.00  0.00     0.210 HD
ENDBRANCH  17  22
BRANCH  18  24
ATOM     24  O3A ACR d         -22.266 -12.862  -5.861  0.00  0.00    -0.390 OA
ATOM     25  H9  ACR d         -21.698 -13.269  -6.505  0.00  0.00     0.210 HD
ENDBRANCH  18  24
BRANCH  19  26
ATOM     26  O4A ACR d         -23.926 -10.580  -5.237  0.00  0.00    -0.388 OA
ATOM     27  H10 ACR d         -23.767 -10.220  -6.101  0.00  0.00     0.210 HD
ENDBRANCH  19  26
BRANCH  20  28
ATOM     28  C6A ACR d         -23.078  -8.481  -3.594  0.00  0.00     0.201 C 
BRANCH  28  29
ATOM     29  O6A ACR d         -23.386  -7.672  -4.745  0.00  0.00    -0.397 OA
ATOM     30  H11 ACR d         -22.588  -7.275  -5.074  0.00  0.00     0.209 HD
ENDBRANCH  28  29
ENDBRANCH  20  28
ENDBRANCH  13  16
ENDBRANCH   5  13
ENDBRANCH   1   2
BRANCH   1  31
ATOM     31  C4C ACR d         -18.274  -3.950  -3.907  0.00  0.00     0.187 C 
ATOM     32  C3C ACR d         -19.666  -3.530  -3.432  0.00  0.00     0.183 C 
ATOM     33  C2C ACR d         -19.676  -2.197  -2.679  0.00  0.00     0.204 C 
ATOM     34  C1C ACR d         -18.598  -2.136  -1.601  0.00  0.00     0.292 C 
ATOM     35  O5C ACR d         -17.335  -2.504  -2.183  0.00  0.00    -0.348 OA
ATOM     36  C5C ACR d         -17.263  -3.823  -2.763  0.00  0.00     0.180 C 
BRANCH  32  37
ATOM     37  O3C ACR d         -20.564  -3.491  -4.548  0.00  0.00    -0.390 OA
ATOM     38  H32 ACR d         -20.663  -4.366  -4.904  0.00  0.00     0.210 HD
ENDBRANCH  32  37
BRANCH  33  39
ATOM     39  O2C ACR d         -20.939  -2.112  -2.030  0.00  0.00    -0.388 OA
ATOM     40  H31 ACR d         -21.569  -1.709  -2.617  0.00  0.00     0.210 HD
ENDBRANCH  33  39
BRANCH  34  41
ATOM     41  O4D ACR d         -18.928  -3.047  -0.544  0.00  0.00    -0.348 OA
BRANCH  41  42
ATOM     42  C4D ACR d         -18.802  -2.584   0.807  0.00  0.00     0.187 C 
ATOM     43  C3D ACR d         -17.495  -1.784   0.808  0.00  0.00     0.183 C 
ATOM     44  C2D ACR d         -17.217  -1.068   2.135  0.00  0.00     0.204 C 
ATOM     45  C1D ACR d         -18.451  -0.311   2.695  0.00  0.00     0.288 C 
ATOM     46  O5D ACR d         -19.689  -1.036   2.535  0.00  0.00    -0.349 OA
ATOM     47  C5D ACR d         -19.939  -1.629   1.239  0.00  0.00     0.180 C 
BRANCH  43  48
ATOM     48  O3D ACR d         -16.384  -2.627   0.439  0.00  0.00    -0.390 OA
ATOM     49  H43 ACR d         -15.875  -2.199  -0.238  0.00  0.00     0.210 HD
ENDBRANCH  43  48
BRANCH  44  50
ATOM     50  O2D ACR d         -16.098  -0.184   1.925  0.00  0.00    -0.388 OA
ATOM     51  H42 ACR d         -15.423  -0.640   1.435  0.00  0.00     0.210 HD
ENDBRANCH  44  50
BRANCH  45  52
ATOM     52  O1D ACR d         -18.580   1.000   2.118  0.00  0.00    -0.369 OA
ATOM     53  H41 ACR d         -19.489   1.159   1.894  0.00  0.00     0.212 HD
ENDBRANCH  45  52
BRANCH  47  54
ATOM     54  C6D ACR d         -21.329  -2.271   1.266  0.00  0.00     0.198 C 
BRANCH  54  55
ATOM     55  O6D ACR d         -22.178  -1.596   0.320  0.00  0.00    -0.398 OA
ATOM     56  H44 ACR d         -22.627  -2.239  -0.216  0.00  0.00     0.209 HD
ENDBRANCH  54  55
ENDBRANCH  47  54
ENDBRANCH  41  42
ENDBRANCH  34  41
BRANCH  36  57
ATOM     57  C6C ACR d         -15.828  -4.080  -3.213  0.00  0.00     0.198 C 
BRANCH  57  58
ATOM     58  O6C ACR d         -15.513  -5.471  -3.047  0.00  0.00    -0.398 OA
ATOM     59  H33 ACR d         -15.449  -5.672  -2.121  0.00  0.00     0.209 HD
ENDBRANCH  57  58
ENDBRANCH  36  57
ENDBRANCH   1  31
TORSDOF 22
ENDMDL
MODEL 10
REMARK VINA RESULT:      -5.9      2.731      5.261
REMARK  22 active torsions:
REMARK  status: ('A' for Active; 'I' for Inactive)
REMARK    1  A    between atoms: N4B_18  and  C1A_1 
REMARK    2  A    between atoms: C2A_2  and  O2A_8 
REMARK    3  A    between atoms: C3A_3  and  O3A_9 
REMARK    4  A    between atoms: C4A_4  and  O4A_10 
REMARK    5  A    between atoms: C5A_5  and  C6A_6 
REMARK    6  A    between atoms: C6A_6  and  O6A_11 
REMARK    7  A    between atoms: O4C_30  and  C1B_12 
REMARK    8  A    between atoms: C2B_13  and  O2B_19 
REMARK    9  A    between atoms: C3B_14  and  O3B_20 
REMARK   10  A    between atoms: C4B_15  and  N4B_18 
REMARK   11  A    between atoms: O4D_42  and  C1C_22 
REMARK   12  A    between atoms: C2C_23  and  O2C_28 
REMARK   13  A    between atoms: C3C_24  and  O3C_29 
REMARK   14  A    between atoms: C4C_25  and  O4C_30 
REMARK   15  A    between atoms: C5C_26  and  C6C_27 
REMARK   16  A    between atoms: C6C_27  and  O6C_32 
REMARK   17  A    between atoms: C1D_33  and  O1D_39 
REMARK   18  A    between atoms: C2D_34  and  O2D_40 
REMARK   19  A    between atoms: C3D_35  and  O3D_41 
REMARK   20  A    between atoms: C4D_36  and  O4D_42 
REMARK   21  A    between atoms: C5D_37  and  C6D_38 
REMARK   22  A    between atoms: C6D_38  and  O6D_44 
ROOT
ATOM      1  O4C ACR d         -22.346  -4.225  -0.139  0.00  0.00    -0.348 OA
ENDROOT
BRANCH   1   2
ATOM      2  C1B ACR d         -20.910  -4.106  -0.079  0.00  0.00     0.292 C 
ATOM      3  C2B ACR d         -20.421  -3.212  -1.217  0.00  0.00     0.204 C 
ATOM      4  C3B ACR d         -20.705  -3.875  -2.575  0.00  0.00     0.184 C 
ATOM      5  C4B ACR d         -19.992  -5.225  -2.657  0.00  0.00     0.246 C 
ATOM      6  C5B ACR d         -20.490  -6.092  -1.481  0.00  0.00     0.154 C 
ATOM      7  C6B ACR d         -19.754  -7.425  -1.392  0.00  0.00     0.042 C 
ATOM      8  O5B ACR d         -20.290  -5.387  -0.229  0.00  0.00    -0.351 OA
BRANCH   3   9
ATOM      9  O2B ACR d         -21.115  -1.968  -1.149  0.00  0.00    -0.388 OA
ATOM     10  H22 ACR d         -21.547  -1.802  -1.979  0.00  0.00     0.210 HD
ENDBRANCH   3   9
BRANCH   4  11
ATOM     11  O3B ACR d         -20.231  -3.056  -3.638  0.00  0.00    -0.391 OA
ATOM     12  H23 ACR d         -20.812  -3.140  -4.385  0.00  0.00     0.210 HD
ENDBRANCH   4  11
BRANCH   5  13
ATOM     13  N4B ACR d         -20.085  -5.831  -4.002  0.00  0.00    -0.056 N 
ATOM     14  H20 ACR d         -20.711  -6.619  -3.932  0.00  0.00     0.278 HD
ATOM     15  H21 ACR d         -20.484  -5.138  -4.615  0.00  0.00     0.278 HD
BRANCH  13  16
ATOM     16  C1A ACR d         -18.835  -6.319  -4.645  0.00  0.00     0.240 C 
ATOM     17  C2A ACR d         -18.206  -5.363  -5.680  0.00  0.00     0.184 C 
ATOM     18  C3A ACR d         -19.070  -5.328  -6.941  0.00  0.00     0.182 C 
ATOM     19  C4A ACR d         -18.986  -6.683  -7.619  0.00  0.00     0.180 C 
ATOM     20  C5A ACR d         -19.181  -7.809  -6.626  0.00  0.00    -0.027 C 
ATOM     21  C7A ACR d         -18.990  -7.687  -5.304  0.00  0.00     0.016 C 
BRANCH  17  22
ATOM     22  O2A ACR d         -18.107  -4.047  -5.154  0.00  0.00    -0.390 OA
ATOM     23  H8  ACR d         -17.296  -3.963  -4.666  0.00  0.00     0.210 HD
ENDBRANCH  17  22
BRANCH  18  24
ATOM     24  O3A ACR d         -18.773  -4.242  -7.889  0.00  0.00    -0.390 OA
ATOM     25  H9  ACR d         -19.587  -3.863  -8.200  0.00  0.00     0.210 HD
ENDBRANCH  18  24
BRANCH  19  26
ATOM     26  O4A ACR d         -19.990  -6.757  -8.630  0.00  0.00    -0.388 OA
ATOM     27  H10 ACR d         -20.830  -6.511  -8.260  0.00  0.00     0.210 HD
ENDBRANCH  19  26
BRANCH  20  28
ATOM     28  C6A ACR d         -19.570  -9.131  -7.213  0.00  0.00     0.201 C 
BRANCH  28  29
ATOM     29  O6A ACR d         -18.682 -10.050  -6.547  0.00  0.00    -0.397 OA
ATOM     30  H11 ACR d         -19.146 -10.858  -6.361  0.00  0.00     0.209 HD
ENDBRANCH  28  29
ENDBRANCH  20  28
ENDBRANCH  13  16
ENDBRANCH   5  13
ENDBRANCH   1   2
BRANCH   1  31
ATOM     31  C4C ACR d         -23.021  -4.425   1.102  0.00  0.00     0.187 C 
ATOM     32  C3C ACR d         -23.691  -3.110   1.500  0.00  0.00     0.183 C 
ATOM     33  C2C ACR d         -24.660  -3.251   2.678  0.00  0.00     0.204 C 
ATOM     34  C1C ACR d         -25.625  -4.418   2.493  0.00  0.00     0.292 C 
ATOM     35  O5C ACR d         -24.872  -5.600   2.170  0.00  0.00    -0.348 OA
ATOM     36  C5C ACR d         -24.070  -5.536   0.973  0.00  0.00     0.180 C 
BRANCH  32  37
ATOM     37  O3C ACR d         -22.688  -2.125   1.782  0.00  0.00    -0.390 OA
ATOM     38  H32 ACR d         -22.937  -1.634   2.555  0.00  0.00     0.210 HD
ENDBRANCH  32  37
BRANCH  33  39
ATOM     39  O2C ACR d         -25.431  -2.056   2.710  0.00  0.00    -0.388 OA
ATOM     40  H31 ACR d         -25.855  -1.976   3.557  0.00  0.00     0.210 HD
ENDBRANCH  33  39
BRANCH  34  41
ATOM     41  O4D ACR d         -26.536  -4.118   1.427  0.00  0.00    -0.348 OA
BRANCH  41  42
ATOM     42  C4D ACR d         -27.876  -4.620   1.525  0.00  0.00     0.187 C 
ATOM     43  C3D ACR d         -28.745  -3.359   1.575  0.00  0.00     0.183 C 
ATOM     44  C2D ACR d         -30.250  -3.651   1.544  0.00  0.00     0.204 C 
ATOM     45  C1D ACR d         -30.653  -4.684   0.459  0.00  0.00     0.288 C 
ATOM     46  O5D ACR d         -29.723  -5.782   0.338  0.00  0.00    -0.349 OA
ATOM     47  C5D ACR d         -28.316  -5.447   0.294  0.00  0.00     0.180 C 
BRANCH  43  48
ATOM     48  O3D ACR d         -28.403  -2.553   2.721  0.00  0.00    -0.390 OA
ATOM     49  H43 ACR d         -27.945  -3.089   3.358  0.00  0.00     0.210 HD
ENDBRANCH  43  48
BRANCH  44  50
ATOM     50  O2D ACR d         -30.932  -2.394   1.365  0.00  0.00    -0.388 OA
ATOM     51  H42 ACR d         -30.336  -1.681   1.562  0.00  0.00     0.210 HD
ENDBRANCH  44  50
BRANCH  45  52
ATOM     52  O1D ACR d         -30.838  -4.064  -0.825  0.00  0.00    -0.369 OA
ATOM     53  H41 ACR d         -30.590  -4.674  -1.510  0.00  0.00     0.212 HD
ENDBRANCH  45  52
BRANCH  47  54
ATOM     54  C6D ACR d         -27.522  -6.739   0.083  0.00  0.00     0.198 C 
BRANCH  54  55
ATOM     55  O6D ACR d         -26.915  -6.712  -1.222  0.00  0.00    -0.398 OA
ATOM     56  H44 ACR d         -26.000  -6.471  -1.139  0.00  0.00     0.209 HD
ENDBRANCH  54  55
ENDBRANCH  47  54
ENDBRANCH  41  42
ENDBRANCH  34  41
BRANCH  36  57
ATOM     57  C6C ACR d         -23.449  -6.907   0.727  0.00  0.00     0.198 C 
BRANCH  57  58
ATOM     58  O6C ACR d         -22.206  -7.008   1.438  0.00  0.00    -0.398 OA
ATOM     59  H33 ACR d         -22.149  -7.859   1.855  0.00  0.00     0.209 HD
ENDBRANCH  57  58
ENDBRANCH  36  57
ENDBRANCH   1  31
TORSDOF 22
ENDMDL
