MODEL 1
REMARK VINA RESULT:      -6.7      0.000      0.000
REMARK  19 active torsions:
REMARK  status: ('A' for Active; 'I' for Inactive)
REMARK    1  A    between atoms: C2_4  and  C1_2 
REMARK    2  A    between atoms: O2_17  and  C2_4 
REMARK    3  A    between atoms: C6_6  and  C7_7 
REMARK    4  A    between atoms: C7_7  and  C8_8 
REMARK    5  A    between atoms: C7_7  and  O7_10 
REMARK    6  A    between atoms: C8_8  and  O8_9 
REMARK    7  A    between atoms: C5_11  and  O5_12 
REMARK    8  A    between atoms: C4_13  and  O4_14 
REMARK    9  A    between atoms: C3_15  and  O3_16 
REMARK   10  A    between atoms: C4_23  and  O2_17 
REMARK   11  A    between atoms: C2_21  and  C1_18 
REMARK   12  A    between atoms: C2_21  and  O2_32 
REMARK   13  A    between atoms: C5_24  and  O5_25 
REMARK   14  A    between atoms: C6_26  and  C7_28 
REMARK   15  A    between atoms: C7_28  and  O7_29 
REMARK   16  A    between atoms: C7_28  and  C8_30 
REMARK   17  A    between atoms: C8_30  and  O8_31 
REMARK   18  A    between atoms: O2_32  and  C9_33 
REMARK   19  A    between atoms: C9_33  and  C10_34 
ROOT
ATOM      1  O2  KO1 d          -7.478   3.018  66.618  0.00  0.00    -0.336 OA
ENDROOT
BRANCH   1   2
ATOM      2  C2  KO1 d          -7.873   2.332  65.379  0.00  0.00     0.286 C 
ATOM      3  O6  KO1 d          -8.864   1.194  65.759  0.00  0.00    -0.334 OA
ATOM      4  C6  KO1 d          -9.982   1.759  66.602  0.00  0.00     0.188 C 
ATOM      5  C5  KO1 d         -10.802   2.732  65.750  0.00  0.00     0.181 C 
ATOM      6  C4  KO1 d          -9.882   3.898  65.301  0.00  0.00     0.184 C 
ATOM      7  C3  KO1 d          -8.598   3.438  64.544  0.00  0.00     0.223 C 
BRANCH   2   8
ATOM      8  C1  KO1 d          -6.755   1.700  64.520  0.00  0.00     0.241 C 
ATOM      9  OA1 KO1 d          -6.572   0.453  64.550  0.00  0.00    -0.644 OA
ATOM     10  O1B KO1 d          -6.069   2.434  63.807  0.00  0.00    -0.644 OA
ENDBRANCH   2   8
BRANCH   4  11
ATOM     11  C7  KO1 d         -10.732   0.489  67.103  0.00  0.00     0.173 C 
BRANCH  11  12
ATOM     12  C8  KO1 d         -10.118  -0.114  68.384  0.00  0.00     0.198 C 
BRANCH  12  13
ATOM     13  O8  KO1 d          -9.766  -1.434  67.911  0.00  0.00    -0.398 OA
ATOM     14  H5  KO1 d          -9.916  -2.067  68.602  0.00  0.00     0.209 HD
ENDBRANCH  12  13
ENDBRANCH  11  12
BRANCH  11  15
ATOM     15  O7  KO1 d         -12.084   0.907  67.209  0.00  0.00    -0.391 OA
ATOM     16  H6  KO1 d         -12.142   1.641  67.809  0.00  0.00     0.210 HD
ENDBRANCH  11  15
ENDBRANCH   4  11
BRANCH   5  17
ATOM     17  O5  KO1 d         -11.301   2.047  64.587  0.00  0.00    -0.390 OA
ATOM     18  H8  KO1 d         -11.260   1.108  64.731  0.00  0.00     0.210 HD
ENDBRANCH   5  17
BRANCH   6  19
ATOM     19  O4  KO1 d         -10.628   4.767  64.480  0.00  0.00    -0.390 OA
ATOM     20  H10 KO1 d         -11.045   5.429  65.017  0.00  0.00     0.210 HD
ENDBRANCH   6  19
BRANCH   7  21
ATOM     21  O3  KO1 d          -8.848   2.784  63.316  0.00  0.00    -0.387 OA
ATOM     22  H12 KO1 d          -9.771   2.854  63.102  0.00  0.00     0.210 HD
ENDBRANCH   7  21
ENDBRANCH   1   2
BRANCH   1  23
ATOM     23  C4  KO1 d          -6.608   2.344  67.582  0.00  0.00     0.163 C 
ATOM     24  C3  KO1 d          -7.304   2.053  68.936  0.00  0.00     0.115 C 
ATOM     25  C2  KO1 d          -6.361   1.617  70.101  0.00  0.00     0.259 C 
ATOM     26  O6  KO1 d          -5.118   2.372  70.002  0.00  0.00    -0.336 OA
ATOM     27  C6  KO1 d          -4.402   2.668  68.733  0.00  0.00     0.187 C 
ATOM     28  C5  KO1 d          -5.360   3.261  67.655  0.00  0.00     0.179 C 
BRANCH  25  29
ATOM     29  C1  KO1 d          -7.126   1.979  71.414  0.00  0.00     0.239 C 
ATOM     30  O1A KO1 d          -6.418   2.004  72.457  0.00  0.00    -0.644 OA
ATOM     31  O1B KO1 d          -8.382   2.204  71.381  0.00  0.00    -0.644 OA
ENDBRANCH  25  29
BRANCH  25  32
ATOM     32  O2  KO1 d          -5.956   0.228  70.064  0.00  0.00    -0.343 OA
BRANCH  32  33
ATOM     33  C9  KO1 d          -6.255  -1.126  69.952  0.00  0.00     0.198 C 
BRANCH  33  34
ATOM     34  C10 KO1 d          -5.848  -2.143  70.846  0.00  0.00    -0.011 C 
ATOM     35  C11 KO1 d          -4.507  -2.511  71.045  0.00  0.00     0.009 C 
ENDBRANCH  33  34
ENDBRANCH  32  33
ENDBRANCH  25  32
BRANCH  27  36
ATOM     36  C7  KO1 d          -3.129   3.534  68.939  0.00  0.00     0.173 C 
BRANCH  36  37
ATOM     37  O7  KO1 d          -2.540   3.902  67.672  0.00  0.00    -0.391 OA
ATOM     38  H20 KO1 d          -2.510   3.140  67.105  0.00  0.00     0.210 HD
ENDBRANCH  36  37
BRANCH  36  39
ATOM     39  C8  KO1 d          -2.053   2.877  69.854  0.00  0.00     0.198 C 
BRANCH  39  40
ATOM     40  O8  KO1 d          -2.599   2.461  71.131  0.00  0.00    -0.398 OA
ATOM     41  H23 KO1 d          -3.275   1.808  70.990  0.00  0.00     0.209 HD
ENDBRANCH  39  40
ENDBRANCH  36  39
ENDBRANCH  27  36
BRANCH  28  42
ATOM     42  O5  KO1 d          -5.732   4.651  67.903  0.00  0.00    -0.390 OA
ATOM     43  H17 KO1 d          -6.604   4.811  67.562  0.00  0.00     0.210 HD
ENDBRANCH  28  42
ENDBRANCH   1  23
TORSDOF 19
ENDMDL
MODEL 2
REMARK VINA RESULT:      -6.7      1.164      2.879
REMARK  19 active torsions:
REMARK  status: ('A' for Active; 'I' for Inactive)
REMARK    1  A    between atoms: C2_4  and  C1_2 
REMARK    2  A    between atoms: O2_17  and  C2_4 
REMARK    3  A    between atoms: C6_6  and  C7_7 
REMARK    4  A    between atoms: C7_7  and  C8_8 
REMARK    5  A    between atoms: C7_7  and  O7_10 
REMARK    6  A    between atoms: C8_8  and  O8_9 
REMARK    7  A    between atoms: C5_11  and  O5_12 
REMARK    8  A    between atoms: C4_13  and  O4_14 
REMARK    9  A    between atoms: C3_15  and  O3_16 
REMARK   10  A    between atoms: C4_23  and  O2_17 
REMARK   11  A    between atoms: C2_21  and  C1_18 
REMARK   12  A    between atoms: C2_21  and  O2_32 
REMARK   13  A    between atoms: C5_24  and  O5_25 
REMARK   14  A    between atoms: C6_26  and  C7_28 
REMARK   15  A    between atoms: C7_28  and  O7_29 
REMARK   16  A    between atoms: C7_28  and  C8_30 
REMARK   17  A    between atoms: C8_30  and  O8_31 
REMARK   18  A    between atoms: O2_32  and  C9_33 
REMARK   19  A    between atoms: C9_33  and  C10_34 
ROOT
ATOM      1  O2  KO1 d          -7.997   2.652  67.503  0.00  0.00    -0.336 OA
ENDROOT
BRANCH   1   2
ATOM      2  C2  KO1 d          -8.669   1.937  66.409  0.00  0.00     0.286 C 
ATOM      3  O6  KO1 d          -9.792   2.860  65.853  0.00  0.00    -0.334 OA
ATOM      4  C6  KO1 d          -9.211   4.214  65.517  0.00  0.00     0.188 C 
ATOM      5  C5  KO1 d          -8.219   4.054  64.362  0.00  0.00     0.181 C 
ATOM      6  C4  KO1 d          -7.067   3.120  64.819  0.00  0.00     0.184 C 
ATOM      7  C3  KO1 d          -7.546   1.730  65.340  0.00  0.00     0.223 C 
BRANCH   2   8
ATOM      8  C1  KO1 d          -9.317   0.572  66.733  0.00  0.00     0.241 C 
ATOM      9  OA1 KO1 d          -8.637  -0.324  67.304  0.00  0.00    -0.644 OA
ATOM     10  O1B KO1 d         -10.499   0.393  66.437  0.00  0.00    -0.644 OA
ENDBRANCH   2   8
BRANCH   4  11
ATOM     11  C7  KO1 d         -10.470   5.082  65.223  0.00  0.00     0.173 C 
BRANCH  11  12
ATOM     12  C8  KO1 d         -11.772   4.258  65.146  0.00  0.00     0.198 C 
BRANCH  12  13
ATOM     13  O8  KO1 d         -11.748   3.857  63.758  0.00  0.00    -0.398 OA
ATOM     14  H5  KO1 d         -12.059   2.963  63.681  0.00  0.00     0.209 HD
ENDBRANCH  12  13
ENDBRANCH  11  12
BRANCH  11  15
ATOM     15  O7  KO1 d         -10.437   6.085  66.227  0.00  0.00    -0.391 OA
ATOM     16  H6  KO1 d         -11.157   6.690  66.094  0.00  0.00     0.210 HD
ENDBRANCH  11  15
ENDBRANCH   4  11
BRANCH   5  17
ATOM     17  O5  KO1 d          -8.889   3.463  63.234  0.00  0.00    -0.390 OA
ATOM     18  H8  KO1 d          -9.625   4.008  62.981  0.00  0.00     0.210 HD
ENDBRANCH   5  17
BRANCH   6  19
ATOM     19  O4  KO1 d          -6.181   2.940  63.739  0.00  0.00    -0.390 OA
ATOM     20  H10 KO1 d          -5.961   3.785  63.365  0.00  0.00     0.210 HD
ENDBRANCH   6  19
BRANCH   7  21
ATOM     21  O3  KO1 d          -8.189   0.933  64.367  0.00  0.00    -0.387 OA
ATOM     22  H12 KO1 d          -7.567   0.699  63.687  0.00  0.00     0.210 HD
ENDBRANCH   7  21
ENDBRANCH   1   2
BRANCH   1  23
ATOM     23  C4  KO1 d          -6.931   1.997  68.260  0.00  0.00     0.163 C 
ATOM     24  C3  KO1 d          -7.352   1.607  69.700  0.00  0.00     0.115 C 
ATOM     25  C2  KO1 d          -6.190   1.185  70.653  0.00  0.00     0.259 C 
ATOM     26  O6  KO1 d          -5.030   2.022  70.373  0.00  0.00    -0.336 OA
ATOM     27  C6  KO1 d          -4.573   2.414  69.014  0.00  0.00     0.187 C 
ATOM     28  C5  KO1 d          -5.743   2.988  68.155  0.00  0.00     0.179 C 
BRANCH  25  29
ATOM     29  C1  KO1 d          -6.723   1.444  72.099  0.00  0.00     0.239 C 
ATOM     30  O1A KO1 d          -7.069   2.633  72.338  0.00  0.00    -0.644 OA
ATOM     31  O1B KO1 d          -6.764   0.490  72.946  0.00  0.00    -0.644 OA
ENDBRANCH  25  29
BRANCH  25  32
ATOM     32  O2  KO1 d          -5.721  -0.172  70.474  0.00  0.00    -0.343 OA
BRANCH  32  33
ATOM     33  C9  KO1 d          -4.754  -1.158  70.636  0.00  0.00     0.198 C 
BRANCH  33  34
ATOM     34  C10 KO1 d          -4.993  -2.504  70.998  0.00  0.00    -0.011 C 
ATOM     35  C11 KO1 d          -5.964  -2.897  71.933  0.00  0.00     0.009 C 
ENDBRANCH  33  34
ENDBRANCH  32  33
ENDBRANCH  25  32
BRANCH  27  36
ATOM     36  C7  KO1 d          -3.335   3.351  69.033  0.00  0.00     0.173 C 
BRANCH  36  37
ATOM     37  O7  KO1 d          -3.057   3.872  67.714  0.00  0.00    -0.391 OA
ATOM     38  H20 KO1 d          -2.684   3.185  67.175  0.00  0.00     0.210 HD
ENDBRANCH  36  37
BRANCH  36  39
ATOM     39  C8  KO1 d          -2.051   2.698  69.626  0.00  0.00     0.198 C 
BRANCH  39  40
ATOM     40  O8  KO1 d          -2.251   2.230  70.984  0.00  0.00    -0.398 OA
ATOM     41  H23 KO1 d          -2.318   2.976  71.570  0.00  0.00     0.209 HD
ENDBRANCH  39  40
ENDBRANCH  36  39
ENDBRANCH  27  36
BRANCH  28  42
ATOM     42  O5  KO1 d          -6.140   4.340  68.538  0.00  0.00    -0.390 OA
ATOM     43  H17 KO1 d          -5.413   4.774  68.967  0.00  0.00     0.210 HD
ENDBRANCH  28  42
ENDBRANCH   1  23
TORSDOF 19
ENDMDL
MODEL 3
REMARK VINA RESULT:      -6.5      3.220      6.318
REMARK  19 active torsions:
REMARK  status: ('A' for Active; 'I' for Inactive)
REMARK    1  A    between atoms: C2_4  and  C1_2 
REMARK    2  A    between atoms: O2_17  and  C2_4 
REMARK    3  A    between atoms: C6_6  and  C7_7 
REMARK    4  A    between atoms: C7_7  and  C8_8 
REMARK    5  A    between atoms: C7_7  and  O7_10 
REMARK    6  A    between atoms: C8_8  and  O8_9 
REMARK    7  A    between atoms: C5_11  and  O5_12 
REMARK    8  A    between atoms: C4_13  and  O4_14 
REMARK    9  A    between atoms: C3_15  and  O3_16 
REMARK   10  A    between atoms: C4_23  and  O2_17 
REMARK   11  A    between atoms: C2_21  and  C1_18 
REMARK   12  A    between atoms: C2_21  and  O2_32 
REMARK   13  A    between atoms: C5_24  and  O5_25 
REMARK   14  A    between atoms: C6_26  and  C7_28 
REMARK   15  A    between atoms: C7_28  and  O7_29 
REMARK   16  A    between atoms: C7_28  and  C8_30 
REMARK   17  A    between atoms: C8_30  and  O8_31 
REMARK   18  A    between atoms: O2_32  and  C9_33 
REMARK   19  A    between atoms: C9_33  and  C10_34 
ROOT
ATOM      1  O2  KO1 d          -7.548   3.694  67.343  0.00  0.00    -0.336 OA
ENDROOT
BRANCH   1   2
ATOM      2  C2  KO1 d          -7.938   2.325  66.972  0.00  0.00     0.286 C 
ATOM      3  O6  KO1 d          -9.229   2.415  66.108  0.00  0.00    -0.334 OA
ATOM      4  C6  KO1 d          -9.008   3.385  64.970  0.00  0.00     0.188 C 
ATOM      5  C5  KO1 d          -7.941   2.814  64.034  0.00  0.00     0.181 C 
ATOM      6  C4  KO1 d          -6.613   2.664  64.822  0.00  0.00     0.184 C 
ATOM      7  C3  KO1 d          -6.737   1.804  66.117  0.00  0.00     0.223 C 
BRANCH   2   8
ATOM      8  C1  KO1 d          -8.220   1.324  68.115  0.00  0.00     0.241 C 
ATOM      9  OA1 KO1 d          -9.324   0.716  68.156  0.00  0.00    -0.644 OA
ATOM     10  O1B KO1 d          -7.346   1.130  68.961  0.00  0.00    -0.644 OA
ENDBRANCH   2   8
BRANCH   4  11
ATOM     11  C7  KO1 d         -10.432   3.556  64.363  0.00  0.00     0.173 C 
BRANCH  11  12
ATOM     12  C8  KO1 d         -11.482   2.623  65.002  0.00  0.00     0.198 C 
BRANCH  12  13
ATOM     13  O8  KO1 d         -11.325   1.447  64.177  0.00  0.00    -0.398 OA
ATOM     14  H5  KO1 d         -12.072   1.365  63.597  0.00  0.00     0.209 HD
ENDBRANCH  12  13
ENDBRANCH  11  12
BRANCH  11  15
ATOM     15  O7  KO1 d         -10.692   4.947  64.484  0.00  0.00    -0.391 OA
ATOM     16  H6  KO1 d         -10.908   5.151  65.386  0.00  0.00     0.210 HD
ENDBRANCH  11  15
ENDBRANCH   4  11
BRANCH   5  17
ATOM     17  O5  KO1 d          -8.360   1.521  63.562  0.00  0.00    -0.390 OA
ATOM     18  H8  KO1 d          -7.662   0.891  63.701  0.00  0.00     0.210 HD
ENDBRANCH   5  17
BRANCH   6  19
ATOM     19  O4  KO1 d          -5.646   2.097  63.969  0.00  0.00    -0.390 OA
ATOM     20  H10 KO1 d          -4.778   2.322  64.281  0.00  0.00     0.210 HD
ENDBRANCH   6  19
BRANCH   7  21
ATOM     21  O3  KO1 d          -7.086   0.453  65.888  0.00  0.00    -0.387 OA
ATOM     22  H12 KO1 d          -7.839   0.225  66.421  0.00  0.00     0.210 HD
ENDBRANCH   7  21
ENDBRANCH   1   2
BRANCH   1  23
ATOM     23  C4  KO1 d          -8.512   4.577  67.998  0.00  0.00     0.163 C 
ATOM     24  C3  KO1 d          -8.591   5.984  67.352  0.00  0.00     0.115 C 
ATOM     25  C2  KO1 d          -9.364   7.063  68.174  0.00  0.00     0.259 C 
ATOM     26  O6  KO1 d          -9.081   6.863  69.589  0.00  0.00    -0.336 OA
ATOM     27  C6  KO1 d          -9.007   5.539  70.263  0.00  0.00     0.187 C 
ATOM     28  C5  KO1 d          -8.084   4.548  69.488  0.00  0.00     0.179 C 
BRANCH  25  29
ATOM     29  C1  KO1 d          -8.805   8.438  67.686  0.00  0.00     0.239 C 
ATOM     30  O1A KO1 d          -9.424   9.450  68.114  0.00  0.00    -0.644 OA
ATOM     31  O1B KO1 d          -7.804   8.477  66.894  0.00  0.00    -0.644 OA
ENDBRANCH  25  29
BRANCH  25  32
ATOM     32  O2  KO1 d         -10.805   6.986  68.069  0.00  0.00    -0.343 OA
BRANCH  32  33
ATOM     33  C9  KO1 d         -12.001   7.324  67.444  0.00  0.00     0.198 C 
BRANCH  33  34
ATOM     34  C10 KO1 d         -12.157   7.673  66.083  0.00  0.00    -0.011 C 
ATOM     35  C11 KO1 d         -12.479   8.967  65.643  0.00  0.00     0.009 C 
ENDBRANCH  33  34
ENDBRANCH  32  33
ENDBRANCH  25  32
BRANCH  27  36
ATOM     36  C7  KO1 d          -8.639   5.641  71.768  0.00  0.00     0.173 C 
BRANCH  36  37
ATOM     37  O7  KO1 d          -9.800   5.427  72.602  0.00  0.00    -0.391 OA
ATOM     38  H20 KO1 d          -9.585   5.635  73.504  0.00  0.00     0.210 HD
ENDBRANCH  36  37
BRANCH  36  39
ATOM     39  C8  KO1 d          -7.942   6.976  72.165  0.00  0.00     0.198 C 
BRANCH  39  40
ATOM     40  O8  KO1 d          -6.699   7.180  71.444  0.00  0.00    -0.398 OA
ATOM     41  H23 KO1 d          -6.051   7.556  72.029  0.00  0.00     0.209 HD
ENDBRANCH  39  40
ENDBRANCH  36  39
ENDBRANCH  27  36
BRANCH  28  42
ATOM     42  O5  KO1 d          -6.661   4.834  69.641  0.00  0.00    -0.390 OA
ATOM     43  H17 KO1 d          -6.507   5.761  69.503  0.00  0.00     0.210 HD
ENDBRANCH  28  42
ENDBRANCH   1  23
TORSDOF 19
ENDMDL
MODEL 4
REMARK VINA RESULT:      -6.2      2.323      4.352
REMARK  19 active torsions:
REMARK  status: ('A' for Active; 'I' for Inactive)
REMARK    1  A    between atoms: C2_4  and  C1_2 
REMARK    2  A    between atoms: O2_17  and  C2_4 
REMARK    3  A    between atoms: C6_6  and  C7_7 
REMARK    4  A    between atoms: C7_7  and  C8_8 
REMARK    5  A    between atoms: C7_7  and  O7_10 
REMARK    6  A    between atoms: C8_8  and  O8_9 
REMARK    7  A    between atoms: C5_11  and  O5_12 
REMARK    8  A    between atoms: C4_13  and  O4_14 
REMARK    9  A    between atoms: C3_15  and  O3_16 
REMARK   10  A    between atoms: C4_23  and  O2_17 
REMARK   11  A    between atoms: C2_21  and  C1_18 
REMARK   12  A    between atoms: C2_21  and  O2_32 
REMARK   13  A    between atoms: C5_24  and  O5_25 
REMARK   14  A    between atoms: C6_26  and  C7_28 
REMARK   15  A    between atoms: C7_28  and  O7_29 
REMARK   16  A    between atoms: C7_28  and  C8_30 
REMARK   17  A    between atoms: C8_30  and  O8_31 
REMARK   18  A    between atoms: O2_32  and  C9_33 
REMARK   19  A    between atoms: C9_33  and  C10_34 
ROOT
ATOM      1  O2  KO1 d          -7.416   1.421  67.206  0.00  0.00    -0.336 OA
ENDROOT
BRANCH   1   2
ATOM      2  C2  KO1 d          -8.424   1.732  66.182  0.00  0.00     0.286 C 
ATOM      3  O6  KO1 d          -8.993   3.148  66.486  0.00  0.00    -0.334 OA
ATOM      4  C6  KO1 d          -7.854   4.129  66.630  0.00  0.00     0.188 C 
ATOM      5  C5  KO1 d          -7.146   4.267  65.280  0.00  0.00     0.181 C 
ATOM      6  C4  KO1 d          -6.562   2.886  64.879  0.00  0.00     0.184 C 
ATOM      7  C3  KO1 d          -7.618   1.738  64.842  0.00  0.00     0.223 C 
BRANCH   2   8
ATOM      8  C1  KO1 d          -9.628   0.773  66.045  0.00  0.00     0.241 C 
ATOM      9  OA1 KO1 d         -10.766   1.136  66.448  0.00  0.00    -0.644 OA
ATOM     10  O1B KO1 d          -9.450  -0.331  65.527  0.00  0.00    -0.644 OA
ENDBRANCH   2   8
BRANCH   4  11
ATOM     11  C7  KO1 d          -8.551   5.412  67.172  0.00  0.00     0.173 C 
BRANCH  11  12
ATOM     12  C8  KO1 d          -8.687   5.428  68.709  0.00  0.00     0.198 C 
BRANCH  12  13
ATOM     13  O8  KO1 d          -7.308   5.629  69.092  0.00  0.00    -0.398 OA
ATOM     14  H5  KO1 d          -6.873   4.788  69.159  0.00  0.00     0.209 HD
ENDBRANCH  12  13
ENDBRANCH  11  12
BRANCH  11  15
ATOM     15  O7  KO1 d          -7.796   6.476  66.611  0.00  0.00    -0.391 OA
ATOM     16  H6  KO1 d          -7.840   6.430  65.664  0.00  0.00     0.210 HD
ENDBRANCH  11  15
ENDBRANCH   4  11
BRANCH   5  17
ATOM     17  O5  KO1 d          -8.094   4.688  64.283  0.00  0.00    -0.390 OA
ATOM     18  H8  KO1 d          -8.862   4.129  64.319  0.00  0.00     0.210 HD
ENDBRANCH   5  17
BRANCH   6  19
ATOM     19  O4  KO1 d          -5.952   3.007  63.616  0.00  0.00    -0.390 OA
ATOM     20  H10 KO1 d          -5.019   3.146  63.727  0.00  0.00     0.210 HD
ENDBRANCH   6  19
BRANCH   7  21
ATOM     21  O3  KO1 d          -8.632   1.910  63.873  0.00  0.00    -0.387 OA
ATOM     22  H12 KO1 d          -8.971   1.061  63.614  0.00  0.00     0.210 HD
ENDBRANCH   7  21
ENDBRANCH   1   2
BRANCH   1  23
ATOM     23  C4  KO1 d          -7.818   0.778  68.457  0.00  0.00     0.163 C 
ATOM     24  C3  KO1 d          -8.266   1.785  69.547  0.00  0.00     0.115 C 
ATOM     25  C2  KO1 d          -8.416   1.201  70.987  0.00  0.00     0.259 C 
ATOM     26  O6  KO1 d          -7.356   0.224  71.207  0.00  0.00    -0.336 OA
ATOM     27  C6  KO1 d          -6.897  -0.772  70.203  0.00  0.00     0.187 C 
ATOM     28  C5  KO1 d          -6.598  -0.107  68.824  0.00  0.00     0.179 C 
BRANCH  25  29
ATOM     29  C1  KO1 d          -8.253   2.420  71.950  0.00  0.00     0.239 C 
ATOM     30  O1A KO1 d          -7.730   3.445  71.434  0.00  0.00    -0.644 OA
ATOM     31  O1B KO1 d          -8.621   2.325  73.169  0.00  0.00    -0.644 OA
ENDBRANCH  25  29
BRANCH  25  32
ATOM     32  O2  KO1 d          -9.645   0.474  71.220  0.00  0.00    -0.343 OA
BRANCH  32  33
ATOM     33  C9  KO1 d         -10.972   0.194  70.911  0.00  0.00     0.198 C 
BRANCH  33  34
ATOM     34  C10 KO1 d         -11.430  -0.879  70.113  0.00  0.00    -0.011 C 
ATOM     35  C11 KO1 d         -10.725  -1.381  69.007  0.00  0.00     0.009 C 
ENDBRANCH  33  34
ENDBRANCH  32  33
ENDBRANCH  25  32
BRANCH  27  36
ATOM     36  C7  KO1 d          -5.718  -1.648  70.708  0.00  0.00     0.173 C 
BRANCH  36  37
ATOM     37  O7  KO1 d          -6.187  -2.934  71.171  0.00  0.00    -0.391 OA
ATOM     38  H20 KO1 d          -5.476  -3.563  71.131  0.00  0.00     0.210 HD
ENDBRANCH  36  37
BRANCH  36  39
ATOM     39  C8  KO1 d          -4.850  -0.972  71.811  0.00  0.00     0.198 C 
BRANCH  39  40
ATOM     40  O8  KO1 d          -4.105   0.165  71.303  0.00  0.00    -0.398 OA
ATOM     41  H23 KO1 d          -3.937   0.776  72.010  0.00  0.00     0.209 HD
ENDBRANCH  39  40
ENDBRANCH  36  39
ENDBRANCH  27  36
BRANCH  28  42
ATOM     42  O5  KO1 d          -5.356   0.660  68.801  0.00  0.00    -0.390 OA
ATOM     43  H17 KO1 d          -5.448   1.393  68.204  0.00  0.00     0.210 HD
ENDBRANCH  28  42
ENDBRANCH   1  23
TORSDOF 19
ENDMDL
MODEL 5
REMARK VINA RESULT:      -6.1      3.088      6.774
REMARK  19 active torsions:
REMARK  status: ('A' for Active; 'I' for Inactive)
REMARK    1  A    between atoms: C2_4  and  C1_2 
REMARK    2  A    between atoms: O2_17  and  C2_4 
REMARK    3  A    between atoms: C6_6  and  C7_7 
REMARK    4  A    between atoms: C7_7  and  C8_8 
REMARK    5  A    between atoms: C7_7  and  O7_10 
REMARK    6  A    between atoms: C8_8  and  O8_9 
REMARK    7  A    between atoms: C5_11  and  O5_12 
REMARK    8  A    between atoms: C4_13  and  O4_14 
REMARK    9  A    between atoms: C3_15  and  O3_16 
REMARK   10  A    between atoms: C4_23  and  O2_17 
REMARK   11  A    between atoms: C2_21  and  C1_18 
REMARK   12  A    between atoms: C2_21  and  O2_32 
REMARK   13  A    between atoms: C5_24  and  O5_25 
REMARK   14  A    between atoms: C6_26  and  C7_28 
REMARK   15  A    between atoms: C7_28  and  O7_29 
REMARK   16  A    between atoms: C7_28  and  C8_30 
REMARK   17  A    between atoms: C8_30  and  O8_31 
REMARK   18  A    between atoms: O2_32  and  C9_33 
REMARK   19  A    between atoms: C9_33  and  C10_34 
ROOT
ATOM      1  O2  KO1 d          -8.385   4.646  66.366  0.00  0.00    -0.336 OA
ENDROOT
BRANCH   1   2
ATOM      2  C2  KO1 d          -7.421   3.800  67.084  0.00  0.00     0.286 C 
ATOM      3  O6  KO1 d          -8.134   2.464  67.446  0.00  0.00    -0.334 OA
ATOM      4  C6  KO1 d          -8.756   1.872  66.202  0.00  0.00     0.188 C 
ATOM      5  C5  KO1 d          -7.641   1.477  65.232  0.00  0.00     0.181 C 
ATOM      6  C4  KO1 d          -6.852   2.753  64.831  0.00  0.00     0.184 C 
ATOM      7  C3  KO1 d          -6.281   3.552  66.043  0.00  0.00     0.223 C 
BRANCH   2   8
ATOM      8  C1  KO1 d          -6.806   4.359  68.387  0.00  0.00     0.241 C 
ATOM      9  OA1 KO1 d          -6.267   5.499  68.386  0.00  0.00    -0.644 OA
ATOM     10  O1B KO1 d          -6.868   3.676  69.411  0.00  0.00    -0.644 OA
ENDBRANCH   2   8
BRANCH   4  11
ATOM     11  C7  KO1 d          -9.626   0.705  66.758  0.00  0.00     0.173 C 
BRANCH  11  12
ATOM     12  C8  KO1 d         -11.042   1.150  67.178  0.00  0.00     0.198 C 
BRANCH  12  13
ATOM     13  O8  KO1 d         -11.606  -0.118  67.583  0.00  0.00    -0.398 OA
ATOM     14  H5  KO1 d         -10.922  -0.666  67.949  0.00  0.00     0.209 HD
ENDBRANCH  12  13
ENDBRANCH  11  12
BRANCH  11  15
ATOM     15  O7  KO1 d          -9.569  -0.280  65.737  0.00  0.00    -0.391 OA
ATOM     16  H6  KO1 d          -8.777  -0.161  65.226  0.00  0.00     0.210 HD
ENDBRANCH  11  15
ENDBRANCH   4  11
BRANCH   5  17
ATOM     17  O5  KO1 d          -6.748   0.552  65.878  0.00  0.00    -0.390 OA
ATOM     18  H8  KO1 d          -6.235   0.095  65.221  0.00  0.00     0.210 HD
ENDBRANCH   5  17
BRANCH   6  19
ATOM     19  O4  KO1 d          -5.799   2.379  63.974  0.00  0.00    -0.390 OA
ATOM     20  H10 KO1 d          -5.011   2.848  64.217  0.00  0.00     0.210 HD
ENDBRANCH   6  19
BRANCH   7  21
ATOM     21  O3  KO1 d          -5.318   2.849  66.802  0.00  0.00    -0.387 OA
ATOM     22  H12 KO1 d          -5.731   2.479  67.574  0.00  0.00     0.210 HD
ENDBRANCH   7  21
ENDBRANCH   1   2
BRANCH   1  23
ATOM     23  C4  KO1 d          -9.740   4.820  66.891  0.00  0.00     0.163 C 
ATOM     24  C3  KO1 d         -10.833   4.781  65.793  0.00  0.00     0.115 C 
ATOM     25  C2  KO1 d         -12.252   5.257  66.235  0.00  0.00     0.259 C 
ATOM     26  O6  KO1 d         -12.103   6.377  67.156  0.00  0.00    -0.336 OA
ATOM     27  C6  KO1 d         -11.083   6.460  68.234  0.00  0.00     0.187 C 
ATOM     28  C5  KO1 d          -9.652   6.139  67.702  0.00  0.00     0.179 C 
BRANCH  25  29
ATOM     29  C1  KO1 d         -12.966   5.711  64.922  0.00  0.00     0.239 C 
ATOM     30  O1A KO1 d         -12.762   4.975  63.918  0.00  0.00    -0.644 OA
ATOM     31  O1B KO1 d         -13.677   6.772  64.914  0.00  0.00    -0.644 OA
ENDBRANCH  25  29
BRANCH  25  32
ATOM     32  O2  KO1 d         -13.020   4.273  66.967  0.00  0.00    -0.343 OA
BRANCH  32  33
ATOM     33  C9  KO1 d         -14.116   3.424  67.085  0.00  0.00     0.198 C 
BRANCH  33  34
ATOM     34  C10 KO1 d         -14.412   2.330  66.241  0.00  0.00    -0.011 C 
ATOM     35  C11 KO1 d         -14.961   1.121  66.699  0.00  0.00     0.009 C 
ENDBRANCH  33  34
ENDBRANCH  32  33
ENDBRANCH  25  32
BRANCH  27  36
ATOM     36  C7  KO1 d         -11.137   7.797  69.023  0.00  0.00     0.173 C 
BRANCH  36  37
ATOM     37  O7  KO1 d         -11.134   8.930  68.126  0.00  0.00    -0.391 OA
ATOM     38  H20 KO1 d         -12.018   9.266  68.037  0.00  0.00     0.210 HD
ENDBRANCH  36  37
BRANCH  36  39
ATOM     39  C8  KO1 d         -10.008   7.957  70.084  0.00  0.00     0.198 C 
BRANCH  39  40
ATOM     40  O8  KO1 d          -8.929   8.805  69.612  0.00  0.00    -0.398 OA
ATOM     41  H23 KO1 d          -9.289   9.618  69.276  0.00  0.00     0.209 HD
ENDBRANCH  39  40
ENDBRANCH  36  39
ENDBRANCH  27  36
BRANCH  28  42
ATOM     42  O5  KO1 d          -9.068   7.216  66.909  0.00  0.00    -0.390 OA
ATOM     43  H17 KO1 d          -9.525   8.029  67.093  0.00  0.00     0.210 HD
ENDBRANCH  28  42
ENDBRANCH   1  23
TORSDOF 19
ENDMDL
MODEL 6
REMARK VINA RESULT:      -6.1      2.215      4.694
REMARK  19 active torsions:
REMARK  status: ('A' for Active; 'I' for Inactive)
REMARK    1  A    between atoms: C2_4  and  C1_2 
REMARK    2  A    between atoms: O2_17  and  C2_4 
REMARK    3  A    between atoms: C6_6  and  C7_7 
REMARK    4  A    between atoms: C7_7  and  C8_8 
REMARK    5  A    between atoms: C7_7  and  O7_10 
REMARK    6  A    between atoms: C8_8  and  O8_9 
REMARK    7  A    between atoms: C5_11  and  O5_12 
REMARK    8  A    between atoms: C4_13  and  O4_14 
REMARK    9  A    between atoms: C3_15  and  O3_16 
REMARK   10  A    between atoms: C4_23  and  O2_17 
REMARK   11  A    between atoms: C2_21  and  C1_18 
REMARK   12  A    between atoms: C2_21  and  O2_32 
REMARK   13  A    between atoms: C5_24  and  O5_25 
REMARK   14  A    between atoms: C6_26  and  C7_28 
REMARK   15  A    between atoms: C7_28  and  O7_29 
REMARK   16  A    between atoms: C7_28  and  C8_30 
REMARK   17  A    between atoms: C8_30  and  O8_31 
REMARK   18  A    between atoms: O2_32  and  C9_33 
REMARK   19  A    between atoms: C9_33  and  C10_34 
ROOT
ATOM      1  O2  KO1 d          -7.945   3.249  68.669  0.00  0.00    -0.336 OA
ENDROOT
BRANCH   1   2
ATOM      2  C2  KO1 d          -7.178   4.101  67.748  0.00  0.00     0.286 C 
ATOM      3  O6  KO1 d          -6.870   3.266  66.471  0.00  0.00    -0.334 OA
ATOM      4  C6  KO1 d          -8.152   2.674  65.934  0.00  0.00     0.188 C 
ATOM      5  C5  KO1 d          -9.059   3.811  65.456  0.00  0.00     0.181 C 
ATOM      6  C4  KO1 d          -9.402   4.719  66.667  0.00  0.00     0.184 C 
ATOM      7  C3  KO1 d          -8.152   5.278  67.415  0.00  0.00     0.223 C 
BRANCH   2   8
ATOM      8  C1  KO1 d          -5.837   4.680  68.252  0.00  0.00     0.241 C 
ATOM      9  OA1 KO1 d          -4.752   4.143  67.900  0.00  0.00    -0.644 OA
ATOM     10  O1B KO1 d          -5.858   5.671  68.984  0.00  0.00    -0.644 OA
ENDBRANCH   2   8
BRANCH   4  11
ATOM     11  C7  KO1 d          -7.658   1.685  64.837  0.00  0.00     0.173 C 
BRANCH  11  12
ATOM     12  C8  KO1 d          -6.140   1.773  64.577  0.00  0.00     0.198 C 
BRANCH  12  13
ATOM     13  O8  KO1 d          -6.090   2.926  63.707  0.00  0.00    -0.398 OA
ATOM     14  H5  KO1 d          -5.248   2.956  63.269  0.00  0.00     0.209 HD
ENDBRANCH  12  13
ENDBRANCH  11  12
BRANCH  11  15
ATOM     15  O7  KO1 d          -8.133   0.421  65.276  0.00  0.00    -0.391 OA
ATOM     16  H6  KO1 d          -7.752   0.216  66.122  0.00  0.00     0.210 HD
ENDBRANCH  11  15
ENDBRANCH   4  11
BRANCH   5  17
ATOM     17  O5  KO1 d          -8.369   4.589  64.461  0.00  0.00    -0.390 OA
ATOM     18  H8  KO1 d          -8.750   4.421  63.607  0.00  0.00     0.210 HD
ENDBRANCH   5  17
BRANCH   6  19
ATOM     19  O4  KO1 d         -10.199   5.788  66.215  0.00  0.00    -0.390 OA
ATOM     20  H10 KO1 d         -10.923   5.920  66.815  0.00  0.00     0.210 HD
ENDBRANCH   6  19
BRANCH   7  21
ATOM     21  O3  KO1 d          -7.343   6.136  66.636  0.00  0.00    -0.387 OA
ATOM     22  H12 KO1 d          -6.434   6.035  66.894  0.00  0.00     0.210 HD
ENDBRANCH   7  21
ENDBRANCH   1   2
BRANCH   1  23
ATOM     23  C4  KO1 d          -7.251   2.470  69.694  0.00  0.00     0.163 C 
ATOM     24  C3  KO1 d          -6.541   1.212  69.132  0.00  0.00     0.115 C 
ATOM     25  C2  KO1 d          -6.044   0.184  70.196  0.00  0.00     0.259 C 
ATOM     26  O6  KO1 d          -7.023   0.117  71.273  0.00  0.00    -0.336 OA
ATOM     27  C6  KO1 d          -7.723   1.291  71.859  0.00  0.00     0.187 C 
ATOM     28  C5  KO1 d          -8.348   2.200  70.757  0.00  0.00     0.179 C 
BRANCH  25  29
ATOM     29  C1  KO1 d          -5.956  -1.183  69.444  0.00  0.00     0.239 C 
ATOM     30  O1A KO1 d          -6.140  -1.122  68.197  0.00  0.00    -0.644 OA
ATOM     31  O1B KO1 d          -5.732  -2.258  70.095  0.00  0.00    -0.644 OA
ENDBRANCH  25  29
BRANCH  25  32
ATOM     32  O2  KO1 d          -4.801   0.537  70.845  0.00  0.00    -0.343 OA
BRANCH  32  33
ATOM     33  C9  KO1 d          -3.955   0.519  71.950  0.00  0.00     0.198 C 
BRANCH  33  34
ATOM     34  C10 KO1 d          -3.994  -0.416  73.009  0.00  0.00    -0.011 C 
ATOM     35  C11 KO1 d          -4.964  -0.401  74.025  0.00  0.00     0.009 C 
ENDBRANCH  33  34
ENDBRANCH  32  33
ENDBRANCH  25  32
BRANCH  27  36
ATOM     36  C7  KO1 d          -8.747   0.904  72.961  0.00  0.00     0.173 C 
BRANCH  36  37
ATOM     37  O7  KO1 d          -8.246   1.235  74.276  0.00  0.00    -0.391 OA
ATOM     38  H20 KO1 d          -8.310   2.173  74.411  0.00  0.00     0.210 HD
ENDBRANCH  36  37
BRANCH  36  39
ATOM     39  C8  KO1 d          -9.188  -0.590  72.924  0.00  0.00     0.198 C 
BRANCH  39  40
ATOM     40  O8  KO1 d          -9.669  -0.986  71.614  0.00  0.00    -0.398 OA
ATOM     41  H23 KO1 d         -10.456  -0.497  71.403  0.00  0.00     0.209 HD
ENDBRANCH  39  40
ENDBRANCH  36  39
ENDBRANCH  27  36
BRANCH  28  42
ATOM     42  O5  KO1 d          -9.552   1.641  70.150  0.00  0.00    -0.390 OA
ATOM     43  H17 KO1 d          -9.630   0.724  70.389  0.00  0.00     0.210 HD
ENDBRANCH  28  42
ENDBRANCH   1  23
TORSDOF 19
ENDMDL
MODEL 7
REMARK VINA RESULT:      -6.0      2.157      4.303
REMARK  19 active torsions:
REMARK  status: ('A' for Active; 'I' for Inactive)
REMARK    1  A    between atoms: C2_4  and  C1_2 
REMARK    2  A    between atoms: O2_17  and  C2_4 
REMARK    3  A    between atoms: C6_6  and  C7_7 
REMARK    4  A    between atoms: C7_7  and  C8_8 
REMARK    5  A    between atoms: C7_7  and  O7_10 
REMARK    6  A    between atoms: C8_8  and  O8_9 
REMARK    7  A    between atoms: C5_11  and  O5_12 
REMARK    8  A    between atoms: C4_13  and  O4_14 
REMARK    9  A    between atoms: C3_15  and  O3_16 
REMARK   10  A    between atoms: C4_23  and  O2_17 
REMARK   11  A    between atoms: C2_21  and  C1_18 
REMARK   12  A    between atoms: C2_21  and  O2_32 
REMARK   13  A    between atoms: C5_24  and  O5_25 
REMARK   14  A    between atoms: C6_26  and  C7_28 
REMARK   15  A    between atoms: C7_28  and  O7_29 
REMARK   16  A    between atoms: C7_28  and  C8_30 
REMARK   17  A    between atoms: C8_30  and  O8_31 
REMARK   18  A    between atoms: O2_32  and  C9_33 
REMARK   19  A    between atoms: C9_33  and  C10_34 
ROOT
ATOM      1  O2  KO1 d          -8.454   3.426  68.512  0.00  0.00    -0.336 OA
ENDROOT
BRANCH   1   2
ATOM      2  C2  KO1 d          -7.598   4.244  67.640  0.00  0.00     0.286 C 
ATOM      3  O6  KO1 d          -7.165   3.361  66.433  0.00  0.00    -0.334 OA
ATOM      4  C6  KO1 d          -8.388   2.746  65.794  0.00  0.00     0.188 C 
ATOM      5  C5  KO1 d          -9.241   3.861  65.184  0.00  0.00     0.181 C 
ATOM      6  C4  KO1 d          -9.702   4.814  66.319  0.00  0.00     0.184 C 
ATOM      7  C3  KO1 d          -8.533   5.405  67.166  0.00  0.00     0.223 C 
BRANCH   2   8
ATOM      8  C1  KO1 d          -6.313   4.845  68.253  0.00  0.00     0.241 C 
ATOM      9  OA1 KO1 d          -5.186   4.504  67.803  0.00  0.00    -0.644 OA
ATOM     10  O1B KO1 d          -6.421   5.662  69.169  0.00  0.00    -0.644 OA
ENDBRANCH   2   8
BRANCH   4  11
ATOM     11  C7  KO1 d          -7.788   1.717  64.790  0.00  0.00     0.173 C 
BRANCH  11  12
ATOM     12  C8  KO1 d          -6.250   1.792  64.687  0.00  0.00     0.198 C 
BRANCH  12  13
ATOM     13  O8  KO1 d          -6.104   2.878  63.744  0.00  0.00    -0.398 OA
ATOM     14  H5  KO1 d          -6.720   2.763  63.031  0.00  0.00     0.209 HD
ENDBRANCH  12  13
ENDBRANCH  11  12
BRANCH  11  15
ATOM     15  O7  KO1 d          -8.314   0.471  65.222  0.00  0.00    -0.391 OA
ATOM     16  H6  KO1 d          -7.668  -0.211  65.081  0.00  0.00     0.210 HD
ENDBRANCH  11  15
ENDBRANCH   4  11
BRANCH   5  17
ATOM     17  O5  KO1 d          -8.454   4.602  64.234  0.00  0.00    -0.390 OA
ATOM     18  H8  KO1 d          -8.834   4.512  63.368  0.00  0.00     0.210 HD
ENDBRANCH   5  17
BRANCH   6  19
ATOM     19  O4  KO1 d         -10.448   5.863  65.749  0.00  0.00    -0.390 OA
ATOM     20  H10 KO1 d         -10.815   5.577  64.921  0.00  0.00     0.210 HD
ENDBRANCH   6  19
BRANCH   7  21
ATOM     21  O3  KO1 d          -7.649   6.235  66.440  0.00  0.00    -0.387 OA
ATOM     22  H12 KO1 d          -6.776   6.168  66.809  0.00  0.00     0.210 HD
ENDBRANCH   7  21
ENDBRANCH   1   2
BRANCH   1  23
ATOM     23  C4  KO1 d          -7.940   2.182  69.085  0.00  0.00     0.163 C 
ATOM     24  C3  KO1 d          -8.754   0.932  68.666  0.00  0.00     0.115 C 
ATOM     25  C2  KO1 d          -8.453  -0.372  69.470  0.00  0.00     0.259 C 
ATOM     26  O6  KO1 d          -8.219  -0.017  70.864  0.00  0.00    -0.336 OA
ATOM     27  C6  KO1 d          -7.436   1.162  71.321  0.00  0.00     0.187 C 
ATOM     28  C5  KO1 d          -7.892   2.471  70.608  0.00  0.00     0.179 C 
BRANCH  25  29
ATOM     29  C1  KO1 d          -9.735  -1.253  69.330  0.00  0.00     0.239 C 
ATOM     30  O1A KO1 d          -9.957  -1.697  68.171  0.00  0.00    -0.644 OA
ATOM     31  O1B KO1 d         -10.482  -1.460  70.344  0.00  0.00    -0.644 OA
ENDBRANCH  25  29
BRANCH  25  32
ATOM     32  O2  KO1 d          -7.255  -1.073  69.060  0.00  0.00    -0.343 OA
BRANCH  32  33
ATOM     33  C9  KO1 d          -6.012  -1.628  69.343  0.00  0.00     0.198 C 
BRANCH  33  34
ATOM     34  C10 KO1 d          -4.991  -1.027  70.115  0.00  0.00    -0.011 C 
ATOM     35  C11 KO1 d          -4.466  -1.595  71.288  0.00  0.00     0.009 C 
ENDBRANCH  33  34
ENDBRANCH  32  33
ENDBRANCH  25  32
BRANCH  27  36
ATOM     36  C7  KO1 d          -7.401   1.308  72.867  0.00  0.00     0.173 C 
BRANCH  36  37
ATOM     37  O7  KO1 d          -7.057   2.657  73.254  0.00  0.00    -0.391 OA
ATOM     38  H20 KO1 d          -7.391   3.267  72.606  0.00  0.00     0.210 HD
ENDBRANCH  36  37
BRANCH  36  39
ATOM     39  C8  KO1 d          -6.458   0.295  73.582  0.00  0.00     0.198 C 
BRANCH  39  40
ATOM     40  O8  KO1 d          -7.188  -0.808  74.177  0.00  0.00    -0.398 OA
ATOM     41  H23 KO1 d          -7.871  -1.094  73.581  0.00  0.00     0.209 HD
ENDBRANCH  39  40
ENDBRANCH  36  39
ENDBRANCH  27  36
BRANCH  28  42
ATOM     42  O5  KO1 d          -9.169   2.987  71.093  0.00  0.00    -0.390 OA
ATOM     43  H17 KO1 d          -9.148   3.937  71.091  0.00  0.00     0.210 HD
ENDBRANCH  28  42
ENDBRANCH   1  23
TORSDOF 19
ENDMDL
MODEL 8
REMARK VINA RESULT:      -5.9      2.673      5.309
REMARK  19 active torsions:
REMARK  status: ('A' for Active; 'I' for Inactive)
REMARK    1  A    between atoms: C2_4  and  C1_2 
REMARK    2  A    between atoms: O2_17  and  C2_4 
REMARK    3  A    between atoms: C6_6  and  C7_7 
REMARK    4  A    between atoms: C7_7  and  C8_8 
REMARK    5  A    between atoms: C7_7  and  O7_10 
REMARK    6  A    between atoms: C8_8  and  O8_9 
REMARK    7  A    between atoms: C5_11  and  O5_12 
REMARK    8  A    between atoms: C4_13  and  O4_14 
REMARK    9  A    between atoms: C3_15  and  O3_16 
REMARK   10  A    between atoms: C4_23  and  O2_17 
REMARK   11  A    between atoms: C2_21  and  C1_18 
REMARK   12  A    between atoms: C2_21  and  O2_32 
REMARK   13  A    between atoms: C5_24  and  O5_25 
REMARK   14  A    between atoms: C6_26  and  C7_28 
REMARK   15  A    between atoms: C7_28  and  O7_29 
REMARK   16  A    between atoms: C7_28  and  C8_30 
REMARK   17  A    between atoms: C8_30  and  O8_31 
REMARK   18  A    between atoms: O2_32  and  C9_33 
REMARK   19  A    between atoms: C9_33  and  C10_34 
ROOT
ATOM      1  O2  KO1 d          -7.561   2.781  67.532  0.00  0.00    -0.336 OA
ENDROOT
BRANCH   1   2
ATOM      2  C2  KO1 d          -8.277   1.974  66.533  0.00  0.00     0.286 C 
ATOM      3  O6  KO1 d          -9.487   2.809  66.023  0.00  0.00    -0.334 OA
ATOM      4  C6  KO1 d          -9.007   4.169  65.573  0.00  0.00     0.188 C 
ATOM      5  C5  KO1 d          -8.102   3.995  64.351  0.00  0.00     0.181 C 
ATOM      6  C4  KO1 d          -6.869   3.145  64.760  0.00  0.00     0.184 C 
ATOM      7  C3  KO1 d          -7.231   1.764  65.389  0.00  0.00     0.223 C 
BRANCH   2   8
ATOM      8  C1  KO1 d          -8.824   0.599  66.978  0.00  0.00     0.241 C 
ATOM      9  OA1 KO1 d          -9.986   0.248  66.639  0.00  0.00    -0.644 OA
ATOM     10  O1B KO1 d          -8.099  -0.137  67.650  0.00  0.00    -0.644 OA
ENDBRANCH   2   8
BRANCH   4  11
ATOM     11  C7  KO1 d         -10.331   4.957  65.338  0.00  0.00     0.173 C 
BRANCH  11  12
ATOM     12  C8  KO1 d         -11.578   4.050  65.293  0.00  0.00     0.198 C 
BRANCH  12  13
ATOM     13  O8  KO1 d         -11.590   3.688  63.894  0.00  0.00    -0.398 OA
ATOM     14  H5  KO1 d         -11.553   4.475  63.364  0.00  0.00     0.209 HD
ENDBRANCH  12  13
ENDBRANCH  11  12
BRANCH  11  15
ATOM     15  O7  KO1 d         -10.327   5.946  66.356  0.00  0.00    -0.391 OA
ATOM     16  H6  KO1 d         -11.057   6.538  66.226  0.00  0.00     0.210 HD
ENDBRANCH  11  15
ENDBRANCH   4  11
BRANCH   5  17
ATOM     17  O5  KO1 d          -8.825   3.310  63.312  0.00  0.00    -0.390 OA
ATOM     18  H8  KO1 d          -8.424   2.463  63.153  0.00  0.00     0.210 HD
ENDBRANCH   5  17
BRANCH   6  19
ATOM     19  O4  KO1 d          -6.062   2.949  63.623  0.00  0.00    -0.390 OA
ATOM     20  H10 KO1 d          -5.682   3.778  63.358  0.00  0.00     0.210 HD
ENDBRANCH   6  19
BRANCH   7  21
ATOM     21  O3  KO1 d          -7.905   0.884  64.513  0.00  0.00    -0.387 OA
ATOM     22  H12 KO1 d          -8.829   0.861  64.734  0.00  0.00     0.210 HD
ENDBRANCH   7  21
ENDBRANCH   1   2
BRANCH   1  23
ATOM     23  C4  KO1 d          -8.232   3.178  68.769  0.00  0.00     0.163 C 
ATOM     24  C3  KO1 d          -8.238   4.711  68.997  0.00  0.00     0.115 C 
ATOM     25  C2  KO1 d          -8.662   5.180  70.425  0.00  0.00     0.259 C 
ATOM     26  O6  KO1 d          -8.126   4.242  71.403  0.00  0.00    -0.336 OA
ATOM     27  C6  KO1 d          -8.107   2.764  71.241  0.00  0.00     0.187 C 
ATOM     28  C5  KO1 d          -7.516   2.342  69.861  0.00  0.00     0.179 C 
BRANCH  25  29
ATOM     29  C1  KO1 d          -8.022   6.594  70.605  0.00  0.00     0.239 C 
ATOM     30  O1A KO1 d          -8.586   7.523  69.964  0.00  0.00    -0.644 OA
ATOM     31  O1B KO1 d          -6.992   6.740  71.344  0.00  0.00    -0.644 OA
ENDBRANCH  25  29
BRANCH  25  32
ATOM     32  O2  KO1 d         -10.089   5.187  70.661  0.00  0.00    -0.343 OA
BRANCH  32  33
ATOM     33  C9  KO1 d         -11.400   5.275  70.202  0.00  0.00     0.198 C 
BRANCH  33  34
ATOM     34  C10 KO1 d         -12.170   6.457  70.110  0.00  0.00    -0.011 C 
ATOM     35  C11 KO1 d         -11.982   7.432  69.117  0.00  0.00     0.009 C 
ENDBRANCH  33  34
ENDBRANCH  32  33
ENDBRANCH  25  32
BRANCH  27  36
ATOM     36  C7  KO1 d          -7.427   2.030  72.429  0.00  0.00     0.173 C 
BRANCH  36  37
ATOM     37  O7  KO1 d          -7.747   0.620  72.419  0.00  0.00    -0.391 OA
ATOM     38  H20 KO1 d          -8.666   0.506  72.209  0.00  0.00     0.210 HD
ENDBRANCH  36  37
BRANCH  36  39
ATOM     39  C8  KO1 d          -7.755   2.637  73.825  0.00  0.00     0.198 C 
BRANCH  39  40
ATOM     40  O8  KO1 d          -7.219   3.976  73.980  0.00  0.00    -0.398 OA
ATOM     41  H23 KO1 d          -7.604   4.549  73.328  0.00  0.00     0.209 HD
ENDBRANCH  39  40
ENDBRANCH  36  39
ENDBRANCH  27  36
BRANCH  28  42
ATOM     42  O5  KO1 d          -6.066   2.484  69.777  0.00  0.00    -0.390 OA
ATOM     43  H17 KO1 d          -5.791   2.407  68.870  0.00  0.00     0.210 HD
ENDBRANCH  28  42
ENDBRANCH   1  23
TORSDOF 19
ENDMDL
MODEL 9
REMARK VINA RESULT:      -5.9      1.998      6.940
REMARK  19 active torsions:
REMARK  status: ('A' for Active; 'I' for Inactive)
REMARK    1  A    between atoms: C2_4  and  C1_2 
REMARK    2  A    between atoms: O2_17  and  C2_4 
REMARK    3  A    between atoms: C6_6  and  C7_7 
REMARK    4  A    between atoms: C7_7  and  C8_8 
REMARK    5  A    between atoms: C7_7  and  O7_10 
REMARK    6  A    between atoms: C8_8  and  O8_9 
REMARK    7  A    between atoms: C5_11  and  O5_12 
REMARK    8  A    between atoms: C4_13  and  O4_14 
REMARK    9  A    between atoms: C3_15  and  O3_16 
REMARK   10  A    between atoms: C4_23  and  O2_17 
REMARK   11  A    between atoms: C2_21  and  C1_18 
REMARK   12  A    between atoms: C2_21  and  O2_32 
REMARK   13  A    between atoms: C5_24  and  O5_25 
REMARK   14  A    between atoms: C6_26  and  C7_28 
REMARK   15  A    between atoms: C7_28  and  O7_29 
REMARK   16  A    between atoms: C7_28  and  C8_30 
REMARK   17  A    between atoms: C8_30  and  O8_31 
REMARK   18  A    between atoms: O2_32  and  C9_33 
REMARK   19  A    between atoms: C9_33  and  C10_34 
ROOT
ATOM      1  O2  KO1 d          -5.512   0.856  69.449  0.00  0.00    -0.336 OA
ENDROOT
BRANCH   1   2
ATOM      2  C2  KO1 d          -5.896  -0.340  70.213  0.00  0.00     0.286 C 
ATOM      3  O6  KO1 d          -5.061  -0.356  71.527  0.00  0.00    -0.334 OA
ATOM      4  C6  KO1 d          -5.209   0.971  72.234  0.00  0.00     0.188 C 
ATOM      5  C5  KO1 d          -6.662   1.131  72.687  0.00  0.00     0.181 C 
ATOM      6  C4  KO1 d          -7.579   1.132  71.435  0.00  0.00     0.184 C 
ATOM      7  C3  KO1 d          -7.413  -0.124  70.526  0.00  0.00     0.223 C 
BRANCH   2   8
ATOM      8  C1  KO1 d          -5.709  -1.716  69.534  0.00  0.00     0.241 C 
ATOM      9  OA1 KO1 d          -5.118  -2.643  70.152  0.00  0.00    -0.644 OA
ATOM     10  O1B KO1 d          -6.158  -1.882  68.399  0.00  0.00    -0.644 OA
ENDBRANCH   2   8
BRANCH   4  11
ATOM     11  C7  KO1 d          -4.142   0.895  73.366  0.00  0.00     0.173 C 
BRANCH  11  12
ATOM     12  C8  KO1 d          -2.701   1.109  72.860  0.00  0.00     0.198 C 
BRANCH  12  13
ATOM     13  O8  KO1 d          -2.961   1.563  71.512  0.00  0.00    -0.398 OA
ATOM     14  H5  KO1 d          -2.330   1.174  70.920  0.00  0.00     0.209 HD
ENDBRANCH  12  13
ENDBRANCH  11  12
BRANCH  11  15
ATOM     15  O7  KO1 d          -4.600   1.830  74.332  0.00  0.00    -0.391 OA
ATOM     16  H6  KO1 d          -4.407   2.711  74.035  0.00  0.00     0.210 HD
ENDBRANCH  11  15
ENDBRANCH   4  11
BRANCH   5  17
ATOM     17  O5  KO1 d          -7.023   0.027  73.537  0.00  0.00    -0.390 OA
ATOM     18  H8  KO1 d          -6.780   0.225  74.434  0.00  0.00     0.210 HD
ENDBRANCH   5  17
BRANCH   6  19
ATOM     19  O4  KO1 d          -8.918   1.234  71.859  0.00  0.00    -0.390 OA
ATOM     20  H10 KO1 d          -9.124   2.143  72.043  0.00  0.00     0.210 HD
ENDBRANCH   6  19
BRANCH   7  21
ATOM     21  O3  KO1 d          -7.777  -1.342  71.143  0.00  0.00    -0.387 OA
ATOM     22  H12 KO1 d          -6.994  -1.801  71.424  0.00  0.00     0.210 HD
ENDBRANCH   7  21
ENDBRANCH   1   2
BRANCH   1  23
ATOM     23  C4  KO1 d          -6.499   1.538  68.612  0.00  0.00     0.163 C 
ATOM     24  C3  KO1 d          -6.458   1.092  67.129  0.00  0.00     0.115 C 
ATOM     25  C2  KO1 d          -7.263   1.983  66.132  0.00  0.00     0.259 C 
ATOM     26  O6  KO1 d          -7.127   3.377  66.537  0.00  0.00    -0.336 OA
ATOM     27  C6  KO1 d          -7.173   3.861  67.943  0.00  0.00     0.187 C 
ATOM     28  C5  KO1 d          -6.220   3.042  68.867  0.00  0.00     0.179 C 
BRANCH  25  29
ATOM     29  C1  KO1 d          -6.604   1.747  64.735  0.00  0.00     0.239 C 
ATOM     30  O1A KO1 d          -6.510   2.772  64.006  0.00  0.00    -0.644 OA
ATOM     31  O1B KO1 d          -6.223   0.576  64.398  0.00  0.00    -0.644 OA
ENDBRANCH  25  29
BRANCH  25  32
ATOM     32  O2  KO1 d          -8.689   1.738  66.117  0.00  0.00    -0.343 OA
BRANCH  32  33
ATOM     33  C9  KO1 d          -9.827   1.204  65.521  0.00  0.00     0.198 C 
BRANCH  33  34
ATOM     34  C10 KO1 d         -10.550   1.777  64.450  0.00  0.00    -0.011 C 
ATOM     35  C11 KO1 d         -10.847   3.147  64.357  0.00  0.00     0.009 C 
ENDBRANCH  33  34
ENDBRANCH  32  33
ENDBRANCH  25  32
BRANCH  27  36
ATOM     36  C7  KO1 d          -6.951   5.393  68.067  0.00  0.00     0.173 C 
BRANCH  36  37
ATOM     37  O7  KO1 d          -6.592   5.758  69.419  0.00  0.00    -0.391 OA
ATOM     38  H20 KO1 d          -5.979   5.121  69.766  0.00  0.00     0.210 HD
ENDBRANCH  36  37
BRANCH  36  39
ATOM     39  C8  KO1 d          -8.158   6.253  67.589  0.00  0.00     0.198 C 
BRANCH  39  40
ATOM     40  O8  KO1 d          -8.924   5.593  66.548  0.00  0.00    -0.398 OA
ATOM     41  H23 KO1 d          -8.333   5.261  65.883  0.00  0.00     0.209 HD
ENDBRANCH  39  40
ENDBRANCH  36  39
ENDBRANCH  27  36
BRANCH  28  42
ATOM     42  O5  KO1 d          -4.808   3.362  68.682  0.00  0.00    -0.390 OA
ATOM     43  H17 KO1 d          -4.380   2.651  68.219  0.00  0.00     0.210 HD
ENDBRANCH  28  42
ENDBRANCH   1  23
TORSDOF 19
ENDMDL
MODEL 10
REMARK VINA RESULT:      -5.8      2.180      3.995
REMARK  19 active torsions:
REMARK  status: ('A' for Active; 'I' for Inactive)
REMARK    1  A    between atoms: C2_4  and  C1_2 
REMARK    2  A    between atoms: O2_17  and  C2_4 
REMARK    3  A    between atoms: C6_6  and  C7_7 
REMARK    4  A    between atoms: C7_7  and  C8_8 
REMARK    5  A    between atoms: C7_7  and  O7_10 
REMARK    6  A    between atoms: C8_8  and  O8_9 
REMARK    7  A    between atoms: C5_11  and  O5_12 
REMARK    8  A    between atoms: C4_13  and  O4_14 
REMARK    9  A    between atoms: C3_15  and  O3_16 
REMARK   10  A    between atoms: C4_23  and  O2_17 
REMARK   11  A    between atoms: C2_21  and  C1_18 
REMARK   12  A    between atoms: C2_21  and  O2_32 
REMARK   13  A    between atoms: C5_24  and  O5_25 
REMARK   14  A    between atoms: C6_26  and  C7_28 
REMARK   15  A    between atoms: C7_28  and  O7_29 
REMARK   16  A    between atoms: C7_28  and  C8_30 
REMARK   17  A    between atoms: C8_30  and  O8_31 
REMARK   18  A    between atoms: O2_32  and  C9_33 
REMARK   19  A    between atoms: C9_33  and  C10_34 
ROOT
ATOM      1  O2  KO1 d          -9.213   2.495  67.274  0.00  0.00    -0.336 OA
ENDROOT
BRANCH   1   2
ATOM      2  C2  KO1 d          -8.759   2.005  65.964  0.00  0.00     0.286 C 
ATOM      3  O6  KO1 d          -9.936   2.170  64.959  0.00  0.00    -0.334 OA
ATOM      4  C6  KO1 d         -10.445   3.592  65.008  0.00  0.00     0.188 C 
ATOM      5  C5  KO1 d          -9.349   4.528  64.493  0.00  0.00     0.181 C 
ATOM      6  C4  KO1 d          -8.115   4.412  65.427  0.00  0.00     0.184 C 
ATOM      7  C3  KO1 d          -7.576   2.957  65.589  0.00  0.00     0.223 C 
BRANCH   2   8
ATOM      8  C1  KO1 d          -8.279   0.539  65.872  0.00  0.00     0.241 C 
ATOM      9  OA1 KO1 d          -7.067   0.263  66.079  0.00  0.00    -0.644 OA
ATOM     10  O1B KO1 d          -9.104  -0.338  65.609  0.00  0.00    -0.644 OA
ENDBRANCH   2   8
BRANCH   4  11
ATOM     11  C7  KO1 d         -11.750   3.534  64.159  0.00  0.00     0.173 C 
BRANCH  11  12
ATOM     12  C8  KO1 d         -12.879   2.727  64.834  0.00  0.00     0.198 C 
BRANCH  12  13
ATOM     13  O8  KO1 d         -14.035   3.290  64.175  0.00  0.00    -0.398 OA
ATOM     14  H5  KO1 d         -14.706   2.623  64.088  0.00  0.00     0.209 HD
ENDBRANCH  12  13
ENDBRANCH  11  12
BRANCH  11  15
ATOM     15  O7  KO1 d         -12.046   4.897  63.892  0.00  0.00    -0.391 OA
ATOM     16  H6  KO1 d         -11.950   5.404  64.689  0.00  0.00     0.210 HD
ENDBRANCH  11  15
ENDBRANCH   4  11
BRANCH   5  17
ATOM     17  O5  KO1 d          -8.972   4.138  63.160  0.00  0.00    -0.390 OA
ATOM     18  H8  KO1 d          -9.063   4.881  62.575  0.00  0.00     0.210 HD
ENDBRANCH   5  17
BRANCH   6  19
ATOM     19  O4  KO1 d          -7.093   5.240  64.925  0.00  0.00    -0.390 OA
ATOM     20  H10 KO1 d          -7.465   6.068  64.645  0.00  0.00     0.210 HD
ENDBRANCH   6  19
BRANCH   7  21
ATOM     21  O3  KO1 d          -7.084   2.381  64.395  0.00  0.00    -0.387 OA
ATOM     22  H12 KO1 d          -7.814   2.143  63.834  0.00  0.00     0.210 HD
ENDBRANCH   7  21
ENDBRANCH   1   2
BRANCH   1  23
ATOM     23  C4  KO1 d          -8.238   2.779  68.327  0.00  0.00     0.163 C 
ATOM     24  C3  KO1 d          -8.039   1.598  69.312  0.00  0.00     0.115 C 
ATOM     25  C2  KO1 d          -7.253   1.933  70.618  0.00  0.00     0.259 C 
ATOM     26  O6  KO1 d          -7.630   3.270  71.060  0.00  0.00    -0.336 OA
ATOM     27  C6  KO1 d          -7.821   4.439  70.162  0.00  0.00     0.187 C 
ATOM     28  C5  KO1 d          -8.753   4.098  68.959  0.00  0.00     0.179 C 
BRANCH  25  29
ATOM     29  C1  KO1 d          -7.701   0.859  71.661  0.00  0.00     0.239 C 
ATOM     30  O1A KO1 d          -8.709   0.177  71.328  0.00  0.00    -0.644 OA
ATOM     31  O1B KO1 d          -7.070   0.735  72.763  0.00  0.00    -0.644 OA
ENDBRANCH  25  29
BRANCH  25  32
ATOM     32  O2  KO1 d          -5.815   1.985  70.464  0.00  0.00    -0.343 OA
BRANCH  32  33
ATOM     33  C9  KO1 d          -4.655   1.693  69.753  0.00  0.00     0.198 C 
BRANCH  33  34
ATOM     34  C10 KO1 d          -3.925   2.598  68.949  0.00  0.00    -0.011 C 
ATOM     35  C11 KO1 d          -4.524   3.588  68.153  0.00  0.00     0.009 C 
ENDBRANCH  33  34
ENDBRANCH  32  33
ENDBRANCH  25  32
BRANCH  27  36
ATOM     36  C7  KO1 d          -8.269   5.721  70.917  0.00  0.00     0.173 C 
BRANCH  36  37
ATOM     37  O7  KO1 d          -7.209   6.703  70.947  0.00  0.00    -0.391 OA
ATOM     38  H20 KO1 d          -7.477   7.472  70.457  0.00  0.00     0.210 HD
ENDBRANCH  36  37
BRANCH  36  39
ATOM     39  C8  KO1 d          -8.790   5.460  72.361  0.00  0.00     0.198 C 
BRANCH  39  40
ATOM     40  O8  KO1 d          -7.709   5.336  73.320  0.00  0.00    -0.398 OA
ATOM     41  H23 KO1 d          -7.119   4.643  73.045  0.00  0.00     0.209 HD
ENDBRANCH  39  40
ENDBRANCH  36  39
ENDBRANCH  27  36
BRANCH  28  42
ATOM     42  O5  KO1 d         -10.164   4.001  69.322  0.00  0.00    -0.390 OA
ATOM     43  H17 KO1 d         -10.615   4.792  69.053  0.00  0.00     0.210 HD
ENDBRANCH  28  42
ENDBRANCH   1  23
TORSDOF 19
ENDMDL
