MODEL 1
REMARK VINA RESULT:      -8.6      0.000      0.000
REMARK  11 active torsions:
REMARK  status: ('A' for Active; 'I' for Inactive)
REMARK    1  A    between atoms: O4_1  and  C4_2 
REMARK    2  A    between atoms: C3_6  and  O3_7 
REMARK    3  A    between atoms: C2_8  and  O2_9 
REMARK    4  A    between atoms: C1_10  and  O1_11 
REMARK    5  A    between atoms: N2_14  and  C8_15 
REMARK    6  A    between atoms: C8_15  and  C9_16 
REMARK    7  A    between atoms: C9_16  and  C10_17 
REMARK    8  A    between atoms: C10_17  and  C11_18 
REMARK    9  A    between atoms: C11_18  and  C12_19 
REMARK   10  A    between atoms: C12_19  and  C13_20 
REMARK   11  A    between atoms: C13_20  and  C14_21 
ROOT
ATOM      1  C4  LGS d           1.653   6.694  13.459  0.00  0.00     0.174 C 
ATOM      2  C5  LGS d           1.013   6.263  12.134  0.00  0.00     0.146 C 
ATOM      3  C6  LGS d           0.546   7.373  11.195  0.00  0.00     0.207 C 
ATOM      4  O6  LGS d           1.001   6.956   9.883  0.00  0.00    -0.319 OA
ATOM      5  C3  LGS d           1.958   5.400  14.223  0.00  0.00     0.182 C 
ATOM      6  C2  LGS d           3.082   4.606  13.537  0.00  0.00     0.198 C 
ATOM      7  C1  LGS d           2.913   4.528  12.000  0.00  0.00     0.255 C 
ATOM      8  N1  LGS d           2.030   5.533  11.362  0.00  0.00    -0.307 N 
ATOM      9  C7  LGS d           1.942   5.962  10.053  0.00  0.00     0.241 C 
ATOM     10  N2  LGS d           2.625   5.458   9.021  0.00  0.00    -0.251 NA
ENDROOT
BRANCH  10  11
ATOM     11  C8  LGS d           2.425   5.710   7.588  0.00  0.00     0.153 C 
BRANCH  11  12
ATOM     12  C9  LGS d           3.707   5.456   6.803  0.00  0.00     0.022 C 
BRANCH  12  13
ATOM     13  C10 LGS d           3.629   6.034   5.383  0.00  0.00     0.002 C 
BRANCH  13  14
ATOM     14  C11 LGS d           2.593   5.307   4.493  0.00  0.00     0.000 C 
BRANCH  14  15
ATOM     15  C12 LGS d           2.785   3.799   4.738  0.00  0.00     0.000 C 
BRANCH  15  16
ATOM     16  C13 LGS d           3.334   3.051   3.504  0.00  0.00    -0.000 C 
BRANCH  16  17
ATOM     17  C14 LGS d           4.788   2.608   3.744  0.00  0.00    -0.005 C 
ATOM     18  C15 LGS d           4.989   2.163   5.196  0.00  0.00     0.005 C 
ENDBRANCH  16  17
ENDBRANCH  15  16
ENDBRANCH  14  15
ENDBRANCH  13  14
ENDBRANCH  12  13
ENDBRANCH  11  12
ENDBRANCH  10  11
BRANCH   7  19
ATOM     19  O1  LGS d           4.190   4.731  11.364  0.00  0.00    -0.374 OA
ATOM     20  H   LGS d           4.811   4.068  11.676  0.00  0.00     0.212 HD
ENDBRANCH   7  19
BRANCH   1  21
ATOM     21  O4  LGS d           0.743   7.488  14.200  0.00  0.00    -0.391 OA
ATOM     22  H   LGS d           1.081   8.384  14.266  0.00  0.00     0.210 HD
ENDBRANCH   1  21
BRANCH   6  23
ATOM     23  O2  LGS d           3.185   3.270  14.042  0.00  0.00    -0.389 OA
ATOM     24  H   LGS d           2.411   3.070  14.574  0.00  0.00     0.210 HD
ENDBRANCH   6  23
BRANCH   5  25
ATOM     25  O3  LGS d           2.417   5.707  15.541  0.00  0.00    -0.390 OA
ATOM     26  H   LGS d           2.331   6.651  15.697  0.00  0.00     0.210 HD
ENDBRANCH   5  25
TORSDOF 11
ENDMDL
MODEL 2
REMARK VINA RESULT:      -8.1      3.550      8.456
REMARK  11 active torsions:
REMARK  status: ('A' for Active; 'I' for Inactive)
REMARK    1  A    between atoms: O4_1  and  C4_2 
REMARK    2  A    between atoms: C3_6  and  O3_7 
REMARK    3  A    between atoms: C2_8  and  O2_9 
REMARK    4  A    between atoms: C1_10  and  O1_11 
REMARK    5  A    between atoms: N2_14  and  C8_15 
REMARK    6  A    between atoms: C8_15  and  C9_16 
REMARK    7  A    between atoms: C9_16  and  C10_17 
REMARK    8  A    between atoms: C10_17  and  C11_18 
REMARK    9  A    between atoms: C11_18  and  C12_19 
REMARK   10  A    between atoms: C12_19  and  C13_20 
REMARK   11  A    between atoms: C13_20  and  C14_21 
ROOT
ATOM      1  C4  LGS d           5.904   3.118   4.920  0.00  0.00     0.174 C 
ATOM      2  C5  LGS d           5.317   3.164   6.336  0.00  0.00     0.146 C 
ATOM      3  C6  LGS d           6.204   3.745   7.436  0.00  0.00     0.207 C 
ATOM      4  O6  LGS d           5.324   4.616   8.192  0.00  0.00    -0.319 OA
ATOM      5  C3  LGS d           4.846   2.435   4.046  0.00  0.00     0.182 C 
ATOM      6  C2  LGS d           3.608   3.331   3.878  0.00  0.00     0.198 C 
ATOM      7  C1  LGS d           3.152   3.984   5.205  0.00  0.00     0.255 C 
ATOM      8  N1  LGS d           4.145   4.050   6.305  0.00  0.00    -0.307 N 
ATOM      9  C7  LGS d           4.194   4.844   7.434  0.00  0.00     0.241 C 
ATOM     10  N2  LGS d           3.249   5.704   7.823  0.00  0.00    -0.251 NA
ENDROOT
BRANCH  10  11
ATOM     11  C8  LGS d           3.135   6.409   9.107  0.00  0.00     0.153 C 
BRANCH  11  12
ATOM     12  C9  LGS d           1.937   5.904   9.903  0.00  0.00     0.022 C 
BRANCH  12  13
ATOM     13  C10 LGS d           0.939   7.031  10.207  0.00  0.00     0.002 C 
BRANCH  13  14
ATOM     14  C11 LGS d           0.544   7.098  11.702  0.00  0.00     0.000 C 
BRANCH  14  15
ATOM     15  C12 LGS d           1.720   6.499  12.495  0.00  0.00     0.000 C 
BRANCH  15  16
ATOM     16  C13 LGS d           1.465   6.460  14.017  0.00  0.00    -0.000 C 
BRANCH  16  17
ATOM     17  C14 LGS d           2.021   5.159  14.624  0.00  0.00    -0.005 C 
ATOM     18  C15 LGS d           2.979   4.470  13.648  0.00  0.00     0.005 C 
ENDBRANCH  16  17
ENDBRANCH  15  16
ENDBRANCH  14  15
ENDBRANCH  13  14
ENDBRANCH  12  13
ENDBRANCH  11  12
ENDBRANCH  10  11
BRANCH   7  19
ATOM     19  O1  LGS d           2.798   5.361   4.970  0.00  0.00    -0.374 OA
ATOM     20  H   LGS d           1.921   5.529   5.320  0.00  0.00     0.212 HD
ENDBRANCH   7  19
BRANCH   1  21
ATOM     21  O4  LGS d           7.098   2.353   4.916  0.00  0.00    -0.391 OA
ATOM     22  H   LGS d           6.905   1.460   5.208  0.00  0.00     0.210 HD
ENDBRANCH   1  21
BRANCH   6  23
ATOM     23  O2  LGS d           2.495   2.616   3.328  0.00  0.00    -0.389 OA
ATOM     24  H   LGS d           1.689   3.116   3.480  0.00  0.00     0.210 HD
ENDBRANCH   6  23
BRANCH   5  25
ATOM     25  O3  LGS d           5.368   2.207   2.735  0.00  0.00    -0.390 OA
ATOM     26  H   LGS d           4.966   2.824   2.119  0.00  0.00     0.210 HD
ENDBRANCH   5  25
TORSDOF 11
ENDMDL
MODEL 3
REMARK VINA RESULT:      -7.9      1.514      2.111
REMARK  11 active torsions:
REMARK  status: ('A' for Active; 'I' for Inactive)
REMARK    1  A    between atoms: O4_1  and  C4_2 
REMARK    2  A    between atoms: C3_6  and  O3_7 
REMARK    3  A    between atoms: C2_8  and  O2_9 
REMARK    4  A    between atoms: C1_10  and  O1_11 
REMARK    5  A    between atoms: N2_14  and  C8_15 
REMARK    6  A    between atoms: C8_15  and  C9_16 
REMARK    7  A    between atoms: C9_16  and  C10_17 
REMARK    8  A    between atoms: C10_17  and  C11_18 
REMARK    9  A    between atoms: C11_18  and  C12_19 
REMARK   10  A    between atoms: C12_19  and  C13_20 
REMARK   11  A    between atoms: C13_20  and  C14_21 
ROOT
ATOM      1  C4  LGS d           1.647   6.688  13.402  0.00  0.00     0.174 C 
ATOM      2  C5  LGS d           1.034   6.244  12.069  0.00  0.00     0.146 C 
ATOM      3  C6  LGS d           0.596   7.347  11.107  0.00  0.00     0.207 C 
ATOM      4  O6  LGS d           1.077   6.910   9.810  0.00  0.00    -0.319 OA
ATOM      5  C3  LGS d           1.926   5.401  14.189  0.00  0.00     0.182 C 
ATOM      6  C2  LGS d           3.059   4.591  13.538  0.00  0.00     0.198 C 
ATOM      7  C1  LGS d           2.924   4.495  11.999  0.00  0.00     0.255 C 
ATOM      8  N1  LGS d           2.062   5.499  11.330  0.00  0.00    -0.307 N 
ATOM      9  C7  LGS d           2.007   5.912  10.013  0.00  0.00     0.241 C 
ATOM     10  N2  LGS d           2.710   5.390   9.004  0.00  0.00    -0.251 NA
ENDROOT
BRANCH  10  11
ATOM     11  C8  LGS d           2.543   5.626   7.563  0.00  0.00     0.153 C 
BRANCH  11  12
ATOM     12  C9  LGS d           3.891   5.641   6.852  0.00  0.00     0.022 C 
BRANCH  12  13
ATOM     13  C10 LGS d           5.041   5.278   7.803  0.00  0.00     0.002 C 
BRANCH  13  14
ATOM     14  C11 LGS d           5.453   3.790   7.708  0.00  0.00     0.000 C 
BRANCH  14  15
ATOM     15  C12 LGS d           5.894   3.547   6.254  0.00  0.00     0.000 C 
BRANCH  15  16
ATOM     16  C13 LGS d           7.427   3.455   6.093  0.00  0.00    -0.000 C 
BRANCH  16  17
ATOM     17  C14 LGS d           7.990   4.768   5.521  0.00  0.00    -0.005 C 
ATOM     18  C15 LGS d           7.015   5.384   4.513  0.00  0.00     0.005 C 
ENDBRANCH  16  17
ENDBRANCH  15  16
ENDBRANCH  14  15
ENDBRANCH  13  14
ENDBRANCH  12  13
ENDBRANCH  11  12
ENDBRANCH  10  11
BRANCH   7  19
ATOM     19  O1  LGS d           4.216   4.681  11.389  0.00  0.00    -0.374 OA
ATOM     20  H   LGS d           4.204   4.322  10.499  0.00  0.00     0.212 HD
ENDBRANCH   7  19
BRANCH   1  21
ATOM     21  O4  LGS d           0.726   7.497  14.114  0.00  0.00    -0.391 OA
ATOM     22  H   LGS d          -0.024   6.963  14.385  0.00  0.00     0.210 HD
ENDBRANCH   1  21
BRANCH   6  23
ATOM     23  O2  LGS d           3.141   3.261  14.062  0.00  0.00    -0.389 OA
ATOM     24  H   LGS d           2.330   2.788  13.860  0.00  0.00     0.210 HD
ENDBRANCH   6  23
BRANCH   5  25
ATOM     25  O3  LGS d           2.358   5.722  15.513  0.00  0.00    -0.390 OA
ATOM     26  H   LGS d           2.769   4.950  15.910  0.00  0.00     0.210 HD
ENDBRANCH   5  25
TORSDOF 11
ENDMDL
MODEL 4
REMARK VINA RESULT:      -7.5      3.756      7.657
REMARK  11 active torsions:
REMARK  status: ('A' for Active; 'I' for Inactive)
REMARK    1  A    between atoms: O4_1  and  C4_2 
REMARK    2  A    between atoms: C3_6  and  O3_7 
REMARK    3  A    between atoms: C2_8  and  O2_9 
REMARK    4  A    between atoms: C1_10  and  O1_11 
REMARK    5  A    between atoms: N2_14  and  C8_15 
REMARK    6  A    between atoms: C8_15  and  C9_16 
REMARK    7  A    between atoms: C9_16  and  C10_17 
REMARK    8  A    between atoms: C10_17  and  C11_18 
REMARK    9  A    between atoms: C11_18  and  C12_19 
REMARK   10  A    between atoms: C12_19  and  C13_20 
REMARK   11  A    between atoms: C13_20  and  C14_21 
ROOT
ATOM      1  C4  LGS d           3.131   2.671   5.700  0.00  0.00     0.174 C 
ATOM      2  C5  LGS d           3.212   3.649   6.878  0.00  0.00     0.146 C 
ATOM      3  C6  LGS d           3.486   3.053   8.258  0.00  0.00     0.207 C 
ATOM      4  O6  LGS d           4.483   3.930   8.842  0.00  0.00    -0.319 OA
ATOM      5  C3  LGS d           2.782   3.518   4.471  0.00  0.00     0.182 C 
ATOM      6  C2  LGS d           3.953   4.434   4.080  0.00  0.00     0.198 C 
ATOM      7  C1  LGS d           4.597   5.140   5.298  0.00  0.00     0.255 C 
ATOM      8  N1  LGS d           4.349   4.549   6.635  0.00  0.00    -0.307 N 
ATOM      9  C7  LGS d           5.024   4.696   7.830  0.00  0.00     0.241 C 
ATOM     10  N2  LGS d           6.052   5.521   8.047  0.00  0.00    -0.251 NA
ENDROOT
BRANCH  10  11
ATOM     11  C8  LGS d           6.669   5.887   9.329  0.00  0.00     0.153 C 
BRANCH  11  12
ATOM     12  C9  LGS d           6.106   7.203   9.852  0.00  0.00     0.022 C 
BRANCH  12  13
ATOM     13  C10 LGS d           5.543   7.057  11.274  0.00  0.00     0.002 C 
BRANCH  13  14
ATOM     14  C11 LGS d           4.161   6.362  11.306  0.00  0.00     0.000 C 
BRANCH  14  15
ATOM     15  C12 LGS d           3.307   7.031  10.213  0.00  0.00     0.000 C 
BRANCH  15  16
ATOM     16  C13 LGS d           1.980   6.291   9.945  0.00  0.00    -0.000 C 
BRANCH  16  17
ATOM     17  C14 LGS d           0.781   7.170  10.345  0.00  0.00    -0.005 C 
ATOM     18  C15 LGS d           0.453   6.998  11.831  0.00  0.00     0.005 C 
ENDBRANCH  16  17
ENDBRANCH  15  16
ENDBRANCH  14  15
ENDBRANCH  13  14
ENDBRANCH  12  13
ENDBRANCH  11  12
ENDBRANCH  10  11
BRANCH   7  19
ATOM     19  O1  LGS d           6.032   5.117   5.166  0.00  0.00    -0.374 OA
ATOM     20  H   LGS d           6.386   4.374   5.662  0.00  0.00     0.212 HD
ENDBRANCH   7  19
BRANCH   1  21
ATOM     21  O4  LGS d           2.109   1.717   5.933  0.00  0.00    -0.391 OA
ATOM     22  H   LGS d           1.340   1.936   5.403  0.00  0.00     0.210 HD
ENDBRANCH   1  21
BRANCH   6  23
ATOM     23  O2  LGS d           3.562   5.439   3.138  0.00  0.00    -0.389 OA
ATOM     24  H   LGS d           2.840   5.956   3.505  0.00  0.00     0.210 HD
ENDBRANCH   6  23
BRANCH   5  25
ATOM     25  O3  LGS d           2.532   2.669   3.348  0.00  0.00    -0.390 OA
ATOM     26  H   LGS d           3.333   2.187   3.128  0.00  0.00     0.210 HD
ENDBRANCH   5  25
TORSDOF 11
ENDMDL
MODEL 5
REMARK VINA RESULT:      -7.5      3.630      7.609
REMARK  11 active torsions:
REMARK  status: ('A' for Active; 'I' for Inactive)
REMARK    1  A    between atoms: O4_1  and  C4_2 
REMARK    2  A    between atoms: C3_6  and  O3_7 
REMARK    3  A    between atoms: C2_8  and  O2_9 
REMARK    4  A    between atoms: C1_10  and  O1_11 
REMARK    5  A    between atoms: N2_14  and  C8_15 
REMARK    6  A    between atoms: C8_15  and  C9_16 
REMARK    7  A    between atoms: C9_16  and  C10_17 
REMARK    8  A    between atoms: C10_17  and  C11_18 
REMARK    9  A    between atoms: C11_18  and  C12_19 
REMARK   10  A    between atoms: C12_19  and  C13_20 
REMARK   11  A    between atoms: C13_20  and  C14_21 
ROOT
ATOM      1  C4  LGS d           3.702   4.083   4.598  0.00  0.00     0.174 C 
ATOM      2  C5  LGS d           5.042   4.184   5.335  0.00  0.00     0.146 C 
ATOM      3  C6  LGS d           5.807   5.500   5.207  0.00  0.00     0.207 C 
ATOM      4  O6  LGS d           6.258   5.792   6.554  0.00  0.00    -0.319 OA
ATOM      5  C3  LGS d           3.194   2.656   4.837  0.00  0.00     0.182 C 
ATOM      6  C2  LGS d           2.796   2.451   6.307  0.00  0.00     0.198 C 
ATOM      7  C1  LGS d           3.831   3.037   7.299  0.00  0.00     0.255 C 
ATOM      8  N1  LGS d           4.772   4.056   6.774  0.00  0.00    -0.307 N 
ATOM      9  C7  LGS d           5.540   5.000   7.426  0.00  0.00     0.241 C 
ATOM     10  N2  LGS d           5.657   5.129   8.751  0.00  0.00    -0.251 NA
ENDROOT
BRANCH  10  11
ATOM     11  C8  LGS d           6.612   5.954   9.503  0.00  0.00     0.153 C 
BRANCH  11  12
ATOM     12  C9  LGS d           6.145   6.159  10.939  0.00  0.00     0.022 C 
BRANCH  12  13
ATOM     13  C10 LGS d           4.823   6.938  11.004  0.00  0.00     0.002 C 
BRANCH  13  14
ATOM     14  C11 LGS d           3.905   6.472  12.158  0.00  0.00     0.000 C 
BRANCH  14  15
ATOM     15  C12 LGS d           2.623   5.923  11.507  0.00  0.00     0.000 C 
BRANCH  15  16
ATOM     16  C13 LGS d           2.278   6.618  10.172  0.00  0.00    -0.000 C 
BRANCH  16  17
ATOM     17  C14 LGS d           0.823   7.123  10.187  0.00  0.00    -0.005 C 
ATOM     18  C15 LGS d           0.277   7.165  11.617  0.00  0.00     0.005 C 
ENDBRANCH  16  17
ENDBRANCH  15  16
ENDBRANCH  14  15
ENDBRANCH  13  14
ENDBRANCH  12  13
ENDBRANCH  11  12
ENDBRANCH  10  11
BRANCH   7  19
ATOM     19  O1  LGS d           3.145   3.712   8.370  0.00  0.00    -0.374 OA
ATOM     20  H   LGS d           2.240   3.893   8.106  0.00  0.00     0.212 HD
ENDBRANCH   7  19
BRANCH   1  21
ATOM     21  O4  LGS d           3.895   4.299   3.210  0.00  0.00    -0.391 OA
ATOM     22  H   LGS d           4.279   3.513   2.816  0.00  0.00     0.210 HD
ENDBRANCH   1  21
BRANCH   6  23
ATOM     23  O2  LGS d           2.606   1.068   6.628  0.00  0.00    -0.389 OA
ATOM     24  H   LGS d           3.415   0.715   7.007  0.00  0.00     0.210 HD
ENDBRANCH   6  23
BRANCH   5  25
ATOM     25  O3  LGS d           2.020   2.419   4.057  0.00  0.00    -0.390 OA
ATOM     26  H   LGS d           2.076   1.550   3.652  0.00  0.00     0.210 HD
ENDBRANCH   5  25
TORSDOF 11
ENDMDL
MODEL 6
REMARK VINA RESULT:      -7.4      3.848      8.405
REMARK  11 active torsions:
REMARK  status: ('A' for Active; 'I' for Inactive)
REMARK    1  A    between atoms: O4_1  and  C4_2 
REMARK    2  A    between atoms: C3_6  and  O3_7 
REMARK    3  A    between atoms: C2_8  and  O2_9 
REMARK    4  A    between atoms: C1_10  and  O1_11 
REMARK    5  A    between atoms: N2_14  and  C8_15 
REMARK    6  A    between atoms: C8_15  and  C9_16 
REMARK    7  A    between atoms: C9_16  and  C10_17 
REMARK    8  A    between atoms: C10_17  and  C11_18 
REMARK    9  A    between atoms: C11_18  and  C12_19 
REMARK   10  A    between atoms: C12_19  and  C13_20 
REMARK   11  A    between atoms: C13_20  and  C14_21 
ROOT
ATOM      1  C4  LGS d           4.282   2.965   4.072  0.00  0.00     0.174 C 
ATOM      2  C5  LGS d           4.191   4.341   4.741  0.00  0.00     0.146 C 
ATOM      3  C6  LGS d           2.824   4.763   5.277  0.00  0.00     0.207 C 
ATOM      4  O6  LGS d           3.103   5.328   6.583  0.00  0.00    -0.319 OA
ATOM      5  C3  LGS d           5.725   2.831   3.573  0.00  0.00     0.182 C 
ATOM      6  C2  LGS d           6.707   2.709   4.750  0.00  0.00     0.198 C 
ATOM      7  C1  LGS d           6.414   3.719   5.886  0.00  0.00     0.255 C 
ATOM      8  N1  LGS d           5.059   4.319   5.928  0.00  0.00    -0.307 N 
ATOM      9  C7  LGS d           4.375   4.943   6.953  0.00  0.00     0.241 C 
ATOM     10  N2  LGS d           4.869   5.219   8.163  0.00  0.00    -0.251 NA
ENDROOT
BRANCH  10  11
ATOM     11  C8  LGS d           4.283   6.063   9.212  0.00  0.00     0.153 C 
BRANCH  11  12
ATOM     12  C9  LGS d           4.716   5.594  10.597  0.00  0.00     0.022 C 
BRANCH  12  13
ATOM     13  C10 LGS d           4.164   6.504  11.705  0.00  0.00     0.002 C 
BRANCH  13  14
ATOM     14  C11 LGS d           3.355   5.729  12.772  0.00  0.00     0.000 C 
BRANCH  14  15
ATOM     15  C12 LGS d           2.185   6.640  13.184  0.00  0.00     0.000 C 
BRANCH  15  16
ATOM     16  C13 LGS d           0.831   6.191  12.592  0.00  0.00    -0.000 C 
BRANCH  16  17
ATOM     17  C14 LGS d           0.268   7.272  11.652  0.00  0.00    -0.005 C 
ATOM     18  C15 LGS d           0.857   7.130  10.246  0.00  0.00     0.005 C 
ENDBRANCH  16  17
ENDBRANCH  15  16
ENDBRANCH  14  15
ENDBRANCH  13  14
ENDBRANCH  12  13
ENDBRANCH  11  12
ENDBRANCH  10  11
BRANCH   7  19
ATOM     19  O1  LGS d           6.546   3.063   7.162  0.00  0.00    -0.374 OA
ATOM     20  H   LGS d           7.475   3.007   7.397  0.00  0.00     0.212 HD
ENDBRANCH   7  19
BRANCH   1  21
ATOM     21  O4  LGS d           3.386   2.900   2.976  0.00  0.00    -0.391 OA
ATOM     22  H   LGS d           2.519   2.629   3.287  0.00  0.00     0.210 HD
ENDBRANCH   1  21
BRANCH   6  23
ATOM     23  O2  LGS d           8.067   2.884   4.339  0.00  0.00    -0.389 OA
ATOM     24  H   LGS d           8.632   2.292   4.842  0.00  0.00     0.210 HD
ENDBRANCH   6  23
BRANCH   5  25
ATOM     25  O3  LGS d           5.866   1.640   2.796  0.00  0.00    -0.390 OA
ATOM     26  H   LGS d           5.433   1.759   1.948  0.00  0.00     0.210 HD
ENDBRANCH   5  25
TORSDOF 11
ENDMDL
MODEL 7
REMARK VINA RESULT:      -6.9      1.526      2.943
REMARK  11 active torsions:
REMARK  status: ('A' for Active; 'I' for Inactive)
REMARK    1  A    between atoms: O4_1  and  C4_2 
REMARK    2  A    between atoms: C3_6  and  O3_7 
REMARK    3  A    between atoms: C2_8  and  O2_9 
REMARK    4  A    between atoms: C1_10  and  O1_11 
REMARK    5  A    between atoms: N2_14  and  C8_15 
REMARK    6  A    between atoms: C8_15  and  C9_16 
REMARK    7  A    between atoms: C9_16  and  C10_17 
REMARK    8  A    between atoms: C10_17  and  C11_18 
REMARK    9  A    between atoms: C11_18  and  C12_19 
REMARK   10  A    between atoms: C12_19  and  C13_20 
REMARK   11  A    between atoms: C13_20  and  C14_21 
ROOT
ATOM      1  C4  LGS d           2.952   4.963  12.391  0.00  0.00     0.174 C 
ATOM      2  C5  LGS d           3.963   5.796  11.594  0.00  0.00     0.146 C 
ATOM      3  C6  LGS d           5.189   5.065  11.050  0.00  0.00     0.207 C 
ATOM      4  O6  LGS d           5.328   5.549   9.690  0.00  0.00    -0.319 OA
ATOM      5  C3  LGS d           1.877   5.946  12.869  0.00  0.00     0.182 C 
ATOM      6  C2  LGS d           1.041   6.468  11.689  0.00  0.00     0.198 C 
ATOM      7  C1  LGS d           1.907   6.864  10.467  0.00  0.00     0.255 C 
ATOM      8  N1  LGS d           3.278   6.305  10.397  0.00  0.00    -0.307 N 
ATOM      9  C7  LGS d           4.145   6.163   9.332  0.00  0.00     0.241 C 
ATOM     10  N2  LGS d           3.933   6.608   8.091  0.00  0.00    -0.251 NA
ENDROOT
BRANCH  10  11
ATOM     11  C8  LGS d           4.888   6.687   6.978  0.00  0.00     0.153 C 
BRANCH  11  12
ATOM     12  C9  LGS d           4.325   6.025   5.725  0.00  0.00     0.022 C 
BRANCH  12  13
ATOM     13  C10 LGS d           3.010   5.285   6.014  0.00  0.00     0.002 C 
BRANCH  13  14
ATOM     14  C11 LGS d           3.200   3.758   6.167  0.00  0.00     0.000 C 
BRANCH  14  15
ATOM     15  C12 LGS d           2.646   3.115   4.883  0.00  0.00     0.000 C 
BRANCH  15  16
ATOM     16  C13 LGS d           3.684   3.047   3.743  0.00  0.00    -0.000 C 
BRANCH  16  17
ATOM     17  C14 LGS d           4.990   2.400   4.239  0.00  0.00    -0.005 C 
ATOM     18  C15 LGS d           5.988   2.240   3.090  0.00  0.00     0.005 C 
ENDBRANCH  16  17
ENDBRANCH  15  16
ENDBRANCH  14  15
ENDBRANCH  13  14
ENDBRANCH  12  13
ENDBRANCH  11  12
ENDBRANCH  10  11
BRANCH   7  19
ATOM     19  O1  LGS d           1.277   6.398   9.258  0.00  0.00    -0.374 OA
ATOM     20  H   LGS d           0.676   5.679   9.467  0.00  0.00     0.212 HD
ENDBRANCH   7  19
BRANCH   1  21
ATOM     21  O4  LGS d           3.589   4.366  13.507  0.00  0.00    -0.391 OA
ATOM     22  H   LGS d           3.556   4.969  14.253  0.00  0.00     0.210 HD
ENDBRANCH   1  21
BRANCH   6  23
ATOM     23  O2  LGS d           0.240   7.598  12.051  0.00  0.00    -0.389 OA
ATOM     24  H   LGS d          -0.614   7.535  11.617  0.00  0.00     0.210 HD
ENDBRANCH   6  23
BRANCH   5  25
ATOM     25  O3  LGS d           0.969   5.286  13.754  0.00  0.00    -0.390 OA
ATOM     26  H   LGS d           1.463   4.727  14.359  0.00  0.00     0.210 HD
ENDBRANCH   5  25
TORSDOF 11
ENDMDL
MODEL 8
REMARK VINA RESULT:      -6.7      2.757      4.064
REMARK  11 active torsions:
REMARK  status: ('A' for Active; 'I' for Inactive)
REMARK    1  A    between atoms: O4_1  and  C4_2 
REMARK    2  A    between atoms: C3_6  and  O3_7 
REMARK    3  A    between atoms: C2_8  and  O2_9 
REMARK    4  A    between atoms: C1_10  and  O1_11 
REMARK    5  A    between atoms: N2_14  and  C8_15 
REMARK    6  A    between atoms: C8_15  and  C9_16 
REMARK    7  A    between atoms: C9_16  and  C10_17 
REMARK    8  A    between atoms: C10_17  and  C11_18 
REMARK    9  A    between atoms: C11_18  and  C12_19 
REMARK   10  A    between atoms: C12_19  and  C13_20 
REMARK   11  A    between atoms: C13_20  and  C14_21 
ROOT
ATOM      1  C4  LGS d           5.094   7.343  11.075  0.00  0.00     0.174 C 
ATOM      2  C5  LGS d           5.186   7.388   9.545  0.00  0.00     0.146 C 
ATOM      3  C6  LGS d           6.472   7.954   8.944  0.00  0.00     0.207 C 
ATOM      4  O6  LGS d           6.809   7.035   7.874  0.00  0.00    -0.319 OA
ATOM      5  C3  LGS d           3.695   6.806  11.399  0.00  0.00     0.182 C 
ATOM      6  C2  LGS d           3.567   5.326  11.001  0.00  0.00     0.198 C 
ATOM      7  C1  LGS d           4.164   5.024   9.605  0.00  0.00     0.255 C 
ATOM      8  N1  LGS d           5.130   6.004   9.054  0.00  0.00    -0.307 N 
ATOM      9  C7  LGS d           6.078   5.879   8.057  0.00  0.00     0.241 C 
ATOM     10  N2  LGS d           6.262   4.802   7.288  0.00  0.00    -0.251 NA
ENDROOT
BRANCH  10  11
ATOM     11  C8  LGS d           7.089   4.679   6.081  0.00  0.00     0.153 C 
BRANCH  11  12
ATOM     12  C9  LGS d           6.516   3.635   5.129  0.00  0.00     0.022 C 
BRANCH  12  13
ATOM     13  C10 LGS d           5.355   2.858   5.767  0.00  0.00     0.002 C 
BRANCH  13  14
ATOM     14  C11 LGS d           4.125   2.744   4.836  0.00  0.00     0.000 C 
BRANCH  14  15
ATOM     15  C12 LGS d           2.904   3.179   5.666  0.00  0.00     0.000 C 
BRANCH  15  16
ATOM     16  C13 LGS d           2.940   4.671   6.059  0.00  0.00    -0.000 C 
BRANCH  16  17
ATOM     17  C14 LGS d           2.767   5.561   4.815  0.00  0.00    -0.005 C 
ATOM     18  C15 LGS d           3.988   6.464   4.620  0.00  0.00     0.005 C 
ENDBRANCH  16  17
ENDBRANCH  15  16
ENDBRANCH  14  15
ENDBRANCH  13  14
ENDBRANCH  12  13
ENDBRANCH  11  12
ENDBRANCH  10  11
BRANCH   7  19
ATOM     19  O1  LGS d           4.906   3.790   9.655  0.00  0.00    -0.374 OA
ATOM     20  H   LGS d           4.975   3.495  10.565  0.00  0.00     0.212 HD
ENDBRANCH   7  19
BRANCH   1  21
ATOM     21  O4  LGS d           5.243   8.649  11.607  0.00  0.00    -0.391 OA
ATOM     22  H   LGS d           5.645   8.595  12.476  0.00  0.00     0.210 HD
ENDBRANCH   1  21
BRANCH   6  23
ATOM     23  O2  LGS d           2.206   4.881  11.009  0.00  0.00    -0.389 OA
ATOM     24  H   LGS d           1.714   5.370  11.673  0.00  0.00     0.210 HD
ENDBRANCH   6  23
BRANCH   5  25
ATOM     25  O3  LGS d           3.459   6.874  12.807  0.00  0.00    -0.390 OA
ATOM     26  H   LGS d           4.300   6.903  13.270  0.00  0.00     0.210 HD
ENDBRANCH   5  25
TORSDOF 11
ENDMDL
MODEL 9
REMARK VINA RESULT:      -6.7      4.500      9.156
REMARK  11 active torsions:
REMARK  status: ('A' for Active; 'I' for Inactive)
REMARK    1  A    between atoms: O4_1  and  C4_2 
REMARK    2  A    between atoms: C3_6  and  O3_7 
REMARK    3  A    between atoms: C2_8  and  O2_9 
REMARK    4  A    between atoms: C1_10  and  O1_11 
REMARK    5  A    between atoms: N2_14  and  C8_15 
REMARK    6  A    between atoms: C8_15  and  C9_16 
REMARK    7  A    between atoms: C9_16  and  C10_17 
REMARK    8  A    between atoms: C10_17  and  C11_18 
REMARK    9  A    between atoms: C11_18  and  C12_19 
REMARK   10  A    between atoms: C12_19  and  C13_20 
REMARK   11  A    between atoms: C13_20  and  C14_21 
ROOT
ATOM      1  C4  LGS d           6.356   2.743   3.231  0.00  0.00     0.174 C 
ATOM      2  C5  LGS d           5.179   3.450   3.913  0.00  0.00     0.146 C 
ATOM      3  C6  LGS d           4.075   2.563   4.488  0.00  0.00     0.207 C 
ATOM      4  O6  LGS d           3.791   3.133   5.791  0.00  0.00    -0.319 OA
ATOM      5  C3  LGS d           7.263   3.856   2.694  0.00  0.00     0.182 C 
ATOM      6  C2  LGS d           7.939   4.620   3.844  0.00  0.00     0.198 C 
ATOM      7  C1  LGS d           6.962   4.963   4.995  0.00  0.00     0.255 C 
ATOM      8  N1  LGS d           5.707   4.177   5.077  0.00  0.00    -0.307 N 
ATOM      9  C7  LGS d           4.830   3.977   6.124  0.00  0.00     0.241 C 
ATOM     10  N2  LGS d           4.903   4.562   7.323  0.00  0.00    -0.251 NA
ENDROOT
BRANCH  10  11
ATOM     11  C8  LGS d           3.898   4.566   8.394  0.00  0.00     0.153 C 
BRANCH  11  12
ATOM     12  C9  LGS d           3.285   5.952   8.563  0.00  0.00     0.022 C 
BRANCH  12  13
ATOM     13  C10 LGS d           2.090   5.932   9.528  0.00  0.00     0.002 C 
BRANCH  13  14
ATOM     14  C11 LGS d           2.123   7.093  10.550  0.00  0.00     0.000 C 
BRANCH  14  15
ATOM     15  C12 LGS d           0.739   7.124  11.225  0.00  0.00     0.000 C 
BRANCH  15  16
ATOM     16  C13 LGS d           0.633   6.165  12.430  0.00  0.00    -0.000 C 
BRANCH  16  17
ATOM     17  C14 LGS d           1.599   6.594  13.548  0.00  0.00    -0.005 C 
ATOM     18  C15 LGS d           2.549   5.450  13.914  0.00  0.00     0.005 C 
ENDBRANCH  16  17
ENDBRANCH  15  16
ENDBRANCH  14  15
ENDBRANCH  13  14
ENDBRANCH  12  13
ENDBRANCH  11  12
ENDBRANCH  10  11
BRANCH   7  19
ATOM     19  O1  LGS d           7.607   4.726   6.262  0.00  0.00    -0.374 OA
ATOM     20  H   LGS d           6.943   4.523   6.924  0.00  0.00     0.212 HD
ENDBRANCH   7  19
BRANCH   1  21
ATOM     21  O4  LGS d           5.885   1.946   2.158  0.00  0.00    -0.391 OA
ATOM     22  H   LGS d           5.952   1.018   2.396  0.00  0.00     0.210 HD
ENDBRANCH   1  21
BRANCH   6  23
ATOM     23  O2  LGS d           8.546   5.838   3.399  0.00  0.00    -0.389 OA
ATOM     24  H   LGS d           8.118   6.584   3.827  0.00  0.00     0.210 HD
ENDBRANCH   6  23
BRANCH   5  25
ATOM     25  O3  LGS d           8.313   3.292   1.904  0.00  0.00    -0.390 OA
ATOM     26  H   LGS d           9.143   3.361   2.380  0.00  0.00     0.210 HD
ENDBRANCH   5  25
TORSDOF 11
ENDMDL
MODEL 10
REMARK VINA RESULT:      -6.6      4.586      8.286
REMARK  11 active torsions:
REMARK  status: ('A' for Active; 'I' for Inactive)
REMARK    1  A    between atoms: O4_1  and  C4_2 
REMARK    2  A    between atoms: C3_6  and  O3_7 
REMARK    3  A    between atoms: C2_8  and  O2_9 
REMARK    4  A    between atoms: C1_10  and  O1_11 
REMARK    5  A    between atoms: N2_14  and  C8_15 
REMARK    6  A    between atoms: C8_15  and  C9_16 
REMARK    7  A    between atoms: C9_16  and  C10_17 
REMARK    8  A    between atoms: C10_17  and  C11_18 
REMARK    9  A    between atoms: C11_18  and  C12_19 
REMARK   10  A    between atoms: C12_19  and  C13_20 
REMARK   11  A    between atoms: C13_20  and  C14_21 
ROOT
ATOM      1  C4  LGS d           6.441   4.125   3.578  0.00  0.00     0.174 C 
ATOM      2  C5  LGS d           6.351   4.614   5.028  0.00  0.00     0.146 C 
ATOM      3  C6  LGS d           5.818   6.028   5.252  0.00  0.00     0.207 C 
ATOM      4  O6  LGS d           4.891   5.896   6.360  0.00  0.00    -0.319 OA
ATOM      5  C3  LGS d           7.065   2.726   3.640  0.00  0.00     0.182 C 
ATOM      6  C2  LGS d           6.098   1.720   4.285  0.00  0.00     0.198 C 
ATOM      7  C1  LGS d           5.411   2.274   5.557  0.00  0.00     0.255 C 
ATOM      8  N1  LGS d           5.397   3.746   5.734  0.00  0.00    -0.307 N 
ATOM      9  C7  LGS d           4.601   4.557   6.518  0.00  0.00     0.241 C 
ATOM     10  N2  LGS d           3.684   4.135   7.393  0.00  0.00    -0.251 NA
ENDROOT
BRANCH  10  11
ATOM     11  C8  LGS d           2.966   4.920   8.406  0.00  0.00     0.153 C 
BRANCH  11  12
ATOM     12  C9  LGS d           3.256   4.400   9.809  0.00  0.00     0.022 C 
BRANCH  12  13
ATOM     13  C10 LGS d           3.706   5.525  10.752  0.00  0.00     0.002 C 
BRANCH  13  14
ATOM     14  C11 LGS d           3.774   6.904  10.055  0.00  0.00     0.000 C 
BRANCH  14  15
ATOM     15  C12 LGS d           5.199   7.441  10.280  0.00  0.00     0.000 C 
BRANCH  15  16
ATOM     16  C13 LGS d           6.238   6.323  10.507  0.00  0.00    -0.000 C 
BRANCH  16  17
ATOM     17  C14 LGS d           7.112   6.135   9.253  0.00  0.00    -0.005 C 
ATOM     18  C15 LGS d           8.222   7.189   9.201  0.00  0.00     0.005 C 
ENDBRANCH  16  17
ENDBRANCH  15  16
ENDBRANCH  14  15
ENDBRANCH  13  14
ENDBRANCH  12  13
ENDBRANCH  11  12
ENDBRANCH  10  11
BRANCH   7  19
ATOM     19  O1  LGS d           4.017   1.909   5.550  0.00  0.00    -0.374 OA
ATOM     20  H   LGS d           3.809   1.430   6.356  0.00  0.00     0.212 HD
ENDBRANCH   7  19
BRANCH   1  21
ATOM     21  O4  LGS d           7.275   4.991   2.827  0.00  0.00    -0.391 OA
ATOM     22  H   LGS d           7.062   5.902   3.037  0.00  0.00     0.210 HD
ENDBRANCH   1  21
BRANCH   6  23
ATOM     23  O2  LGS d           6.748   0.491   4.630  0.00  0.00    -0.389 OA
ATOM     24  H   LGS d           7.699   0.625   4.639  0.00  0.00     0.210 HD
ENDBRANCH   6  23
BRANCH   5  25
ATOM     25  O3  LGS d           7.332   2.250   2.319  0.00  0.00    -0.390 OA
ATOM     26  H   LGS d           7.189   2.960   1.689  0.00  0.00     0.210 HD
ENDBRANCH   5  25
TORSDOF 11
ENDMDL
