MODEL 1
REMARK VINA RESULT:      -8.2      0.000      0.000
REMARK  10 active torsions:
REMARK  status: ('A' for Active; 'I' for Inactive)
REMARK    1  A    between atoms: C1_2  and  C3_3 
REMARK    2  A    between atoms: C3_3  and  C4_4 
REMARK       I    between atoms: C4_4  and  N1_6 
REMARK    3  A    between atoms: N1_6  and  C5_7 
REMARK    4  A    between atoms: C6_8  and  O2_9 
REMARK    5  A    between atoms: C7_10  and  O3_11 
REMARK    6  A    between atoms: C8_12  and  C9_13 
REMARK    7  A    between atoms: C9_13  and  O4_14 
REMARK    8  A    between atoms: N2_17  and  O6_18 
REMARK    9  A    between atoms: O6_18  and  C11_19 
REMARK       I    between atoms: C11_19  and  N3_21 
REMARK   10  A    between atoms: N3_21  and  C12_22 
ROOT
ATOM      1  C5  NP6 d          -8.015 -12.259   8.082  0.00  0.00     0.195 C 
ATOM      2  C6  NP6 d          -8.952 -11.836   9.228  0.00  0.00     0.180 C 
ATOM      3  C7  NP6 d          -8.191 -11.065  10.295  0.00  0.00     0.180 C 
ATOM      4  C8  NP6 d          -7.646  -9.789   9.659  0.00  0.00     0.185 C 
ATOM      5  O5  NP6 d          -6.739 -10.101   8.610  0.00  0.00    -0.324 OA
ATOM      6  C10 NP6 d          -6.781 -11.335   8.008  0.00  0.00     0.194 C 
ATOM      7  N2  NP6 d          -5.680 -11.726   7.366  0.00  0.00    -0.100 NA
ENDROOT
BRANCH   1   8
ATOM      8  N1  NP6 d          -8.749 -12.349   6.784  0.00  0.00    -0.346 N 
ATOM      9  C4  NP6 d          -9.660 -13.276   6.460  0.00  0.00     0.218 C 
ATOM     10  O1  NP6 d         -10.021 -14.195   7.202  0.00  0.00    -0.274 OA
ATOM     11  H8  NP6 d          -8.542 -11.655   6.095  0.00  0.00     0.163 HD
BRANCH   9  12
ATOM     12  C3  NP6 d         -10.246 -13.137   5.037  0.00  0.00     0.102 C 
BRANCH  12  13
ATOM     13  C1  NP6 d         -10.826 -11.740   4.876  0.00  0.00     0.005 C 
ATOM     14  C2  NP6 d         -11.742 -11.623   3.664  0.00  0.00     0.005 C 
ENDBRANCH  12  13
ENDBRANCH   9  12
ENDBRANCH   1   8
BRANCH   7  15
ATOM     15  O6  NP6 d          -4.579 -10.901   7.361  0.00  0.00    -0.153 OA
BRANCH  15  16
ATOM     16  C11 NP6 d          -3.757 -11.052   8.464  0.00  0.00     0.389 C 
ATOM     17  O7  NP6 d          -2.960 -11.997   8.509  0.00  0.00    -0.236 OA
ATOM     18  N3  NP6 d          -3.862 -10.126   9.447  0.00  0.00    -0.301 N 
ATOM     19  H18 NP6 d          -4.480  -9.365   9.249  0.00  0.00     0.171 HD
BRANCH  18  20
ATOM     20  C12 NP6 d          -3.256 -10.072  10.660  0.00  0.00     0.036 A 
ATOM     21  C13 NP6 d          -3.937 -10.610  11.757  0.00  0.00     0.029 A 
ATOM     22  C14 NP6 d          -3.372 -10.615  13.038  0.00  0.00     0.002 A 
ATOM     23  C15 NP6 d          -2.094 -10.080  13.236  0.00  0.00     0.000 A 
ATOM     24  C16 NP6 d          -1.393  -9.560  12.146  0.00  0.00     0.002 A 
ATOM     25  C17 NP6 d          -1.969  -9.557  10.868  0.00  0.00     0.029 A 
ENDBRANCH  18  20
ENDBRANCH  15  16
ENDBRANCH   7  15
BRANCH   2  26
ATOM     26  O2  NP6 d          -9.550 -12.987   9.799  0.00  0.00    -0.390 OA
ATOM     27  H11 NP6 d          -9.525 -13.700   9.172  0.00  0.00     0.210 HD
ENDBRANCH   2  26
BRANCH   4  28
ATOM     28  C9  NP6 d          -6.906  -8.808  10.601  0.00  0.00     0.199 C 
BRANCH  28  29
ATOM     29  O4  NP6 d          -7.777  -8.325  11.616  0.00  0.00    -0.398 OA
ATOM     30  H17 NP6 d          -7.385  -7.567  12.034  0.00  0.00     0.209 HD
ENDBRANCH  28  29
ENDBRANCH   4  28
BRANCH   3  31
ATOM     31  O3  NP6 d          -9.071 -10.683  11.361  0.00  0.00    -0.390 OA
ATOM     32  H13 NP6 d          -9.580  -9.926  11.095  0.00  0.00     0.210 HD
ENDBRANCH   3  31
TORSDOF 10
ENDMDL
MODEL 2
REMARK VINA RESULT:      -8.2      1.403      1.704
REMARK  10 active torsions:
REMARK  status: ('A' for Active; 'I' for Inactive)
REMARK    1  A    between atoms: C1_2  and  C3_3 
REMARK    2  A    between atoms: C3_3  and  C4_4 
REMARK       I    between atoms: C4_4  and  N1_6 
REMARK    3  A    between atoms: N1_6  and  C5_7 
REMARK    4  A    between atoms: C6_8  and  O2_9 
REMARK    5  A    between atoms: C7_10  and  O3_11 
REMARK    6  A    between atoms: C8_12  and  C9_13 
REMARK    7  A    between atoms: C9_13  and  O4_14 
REMARK    8  A    between atoms: N2_17  and  O6_18 
REMARK    9  A    between atoms: O6_18  and  C11_19 
REMARK       I    between atoms: C11_19  and  N3_21 
REMARK   10  A    between atoms: N3_21  and  C12_22 
ROOT
ATOM      1  C5  NP6 d          -7.961 -11.682   8.471  0.00  0.00     0.195 C 
ATOM      2  C6  NP6 d          -8.792 -10.663   9.272  0.00  0.00     0.180 C 
ATOM      3  C7  NP6 d          -7.902  -9.834  10.185  0.00  0.00     0.180 C 
ATOM      4  C8  NP6 d          -6.934  -9.043   9.309  0.00  0.00     0.185 C 
ATOM      5  O5  NP6 d          -6.103  -9.921   8.562  0.00  0.00    -0.324 OA
ATOM      6  C10 NP6 d          -6.494 -11.219   8.343  0.00  0.00     0.194 C 
ATOM      7  N2  NP6 d          -5.534 -12.090   8.034  0.00  0.00    -0.100 NA
ENDROOT
BRANCH   1   8
ATOM      8  N1  NP6 d          -8.592 -11.979   7.149  0.00  0.00    -0.346 N 
ATOM      9  C4  NP6 d          -9.535 -12.902   6.919  0.00  0.00     0.218 C 
ATOM     10  O1  NP6 d         -10.018 -13.642   7.782  0.00  0.00    -0.274 OA
ATOM     11  H8  NP6 d          -8.281 -11.441   6.366  0.00  0.00     0.163 HD
BRANCH   9  12
ATOM     12  C3  NP6 d          -9.993 -13.006   5.447  0.00  0.00     0.102 C 
BRANCH  12  13
ATOM     13  C1  NP6 d         -10.586 -11.673   5.019  0.00  0.00     0.005 C 
ATOM     14  C2  NP6 d         -11.585 -11.817   3.878  0.00  0.00     0.005 C 
ENDBRANCH  12  13
ENDBRANCH   9  12
ENDBRANCH   1   8
BRANCH   7  15
ATOM     15  O6  NP6 d          -4.230 -11.657   7.977  0.00  0.00    -0.153 OA
BRANCH  15  16
ATOM     16  C11 NP6 d          -3.647 -11.458   9.217  0.00  0.00     0.389 C 
ATOM     17  O7  NP6 d          -2.681 -10.694   9.324  0.00  0.00    -0.236 OA
ATOM     18  N3  NP6 d          -4.193 -12.114  10.270  0.00  0.00    -0.301 N 
ATOM     19  H18 NP6 d          -5.024 -12.631  10.064  0.00  0.00     0.171 HD
BRANCH  18  20
ATOM     20  C12 NP6 d          -3.783 -12.176  11.562  0.00  0.00     0.036 A 
ATOM     21  C13 NP6 d          -3.013 -13.276  11.953  0.00  0.00     0.029 A 
ATOM     22  C14 NP6 d          -2.532 -13.404  13.261  0.00  0.00     0.002 A 
ATOM     23  C15 NP6 d          -2.814 -12.411  14.206  0.00  0.00     0.000 A 
ATOM     24  C16 NP6 d          -3.563 -11.296  13.824  0.00  0.00     0.002 A 
ATOM     25  C17 NP6 d          -4.043 -11.179  12.513  0.00  0.00     0.029 A 
ENDBRANCH  18  20
ENDBRANCH  15  16
ENDBRANCH   7  15
BRANCH   2  26
ATOM     26  O2  NP6 d          -9.766 -11.349  10.041  0.00  0.00    -0.390 OA
ATOM     27  H11 NP6 d          -9.498 -11.359  10.952  0.00  0.00     0.210 HD
ENDBRANCH   2  26
BRANCH   4  28
ATOM     28  C9  NP6 d          -5.987  -8.059  10.040  0.00  0.00     0.199 C 
BRANCH  28  29
ATOM     29  O4  NP6 d          -5.663  -8.538  11.339  0.00  0.00    -0.398 OA
ATOM     30  H17 NP6 d          -6.464  -8.715  11.819  0.00  0.00     0.209 HD
ENDBRANCH  28  29
ENDBRANCH   4  28
BRANCH   3  31
ATOM     31  O3  NP6 d          -8.686  -8.894  10.932  0.00  0.00    -0.390 OA
ATOM     32  H13 NP6 d          -8.114  -8.374  11.484  0.00  0.00     0.210 HD
ENDBRANCH   3  31
TORSDOF 10
ENDMDL
MODEL 3
REMARK VINA RESULT:      -7.5      2.132      7.678
REMARK  10 active torsions:
REMARK  status: ('A' for Active; 'I' for Inactive)
REMARK    1  A    between atoms: C1_2  and  C3_3 
REMARK    2  A    between atoms: C3_3  and  C4_4 
REMARK       I    between atoms: C4_4  and  N1_6 
REMARK    3  A    between atoms: N1_6  and  C5_7 
REMARK    4  A    between atoms: C6_8  and  O2_9 
REMARK    5  A    between atoms: C7_10  and  O3_11 
REMARK    6  A    between atoms: C8_12  and  C9_13 
REMARK    7  A    between atoms: C9_13  and  O4_14 
REMARK    8  A    between atoms: N2_17  and  O6_18 
REMARK    9  A    between atoms: O6_18  and  C11_19 
REMARK       I    between atoms: C11_19  and  N3_21 
REMARK   10  A    between atoms: N3_21  and  C12_22 
ROOT
ATOM      1  C5  NP6 d          -4.300 -11.725  10.087  0.00  0.00     0.195 C 
ATOM      2  C6  NP6 d          -4.587 -10.247  10.403  0.00  0.00     0.180 C 
ATOM      3  C7  NP6 d          -5.896  -9.800   9.771  0.00  0.00     0.180 C 
ATOM      4  C8  NP6 d          -7.024 -10.623  10.388  0.00  0.00     0.185 C 
ATOM      5  O5  NP6 d          -6.847 -12.004  10.105  0.00  0.00    -0.324 OA
ATOM      6  C10 NP6 d          -5.606 -12.484   9.765  0.00  0.00     0.194 C 
ATOM      7  N2  NP6 d          -5.570 -13.643   9.109  0.00  0.00    -0.100 NA
ENDROOT
BRANCH   1   8
ATOM      8  N1  NP6 d          -3.509 -12.372  11.177  0.00  0.00    -0.346 N 
ATOM      9  C4  NP6 d          -2.193 -12.226  11.385  0.00  0.00     0.218 C 
ATOM     10  O1  NP6 d          -1.447 -11.527  10.692  0.00  0.00    -0.274 OA
ATOM     11  H8  NP6 d          -4.005 -12.967  11.808  0.00  0.00     0.163 HD
BRANCH   9  12
ATOM     12  C3  NP6 d          -1.634 -13.030  12.579  0.00  0.00     0.102 C 
BRANCH  12  13
ATOM     13  C1  NP6 d          -2.593 -12.903  13.752  0.00  0.00     0.005 C 
ATOM     14  C2  NP6 d          -1.988 -12.136  14.922  0.00  0.00     0.005 C 
ENDBRANCH  12  13
ENDBRANCH   9  12
ENDBRANCH   1   8
BRANCH   7  15
ATOM     15  O6  NP6 d          -6.753 -14.271   8.793  0.00  0.00    -0.153 OA
BRANCH  15  16
ATOM     16  C11 NP6 d          -7.320 -13.839   7.607  0.00  0.00     0.389 C 
ATOM     17  O7  NP6 d          -6.708 -13.993   6.543  0.00  0.00    -0.236 OA
ATOM     18  N3  NP6 d          -8.550 -13.274   7.677  0.00  0.00    -0.301 N 
ATOM     19  H18 NP6 d          -8.973 -13.289   8.583  0.00  0.00     0.171 HD
BRANCH  18  20
ATOM     20  C12 NP6 d          -9.296 -12.692   6.705  0.00  0.00     0.036 A 
ATOM     21  C13 NP6 d         -10.109 -13.518   5.920  0.00  0.00     0.029 A 
ATOM     22  C14 NP6 d         -10.926 -12.994   4.911  0.00  0.00     0.002 A 
ATOM     23  C15 NP6 d         -10.946 -11.614   4.679  0.00  0.00     0.000 A 
ATOM     24  C16 NP6 d         -10.158 -10.776   5.470  0.00  0.00     0.002 A 
ATOM     25  C17 NP6 d          -9.340 -11.310   6.475  0.00  0.00     0.029 A 
ENDBRANCH  18  20
ENDBRANCH  15  16
ENDBRANCH   7  15
BRANCH   2  26
ATOM     26  O2  NP6 d          -3.521  -9.445   9.922  0.00  0.00    -0.390 OA
ATOM     27  H11 NP6 d          -2.728  -9.966   9.883  0.00  0.00     0.210 HD
ENDBRANCH   2  26
BRANCH   4  28
ATOM     28  C9  NP6 d          -8.464 -10.266   9.944  0.00  0.00     0.199 C 
BRANCH  28  29
ATOM     29  O4  NP6 d          -9.329 -11.386  10.081  0.00  0.00    -0.398 OA
ATOM     30  H17 NP6 d          -9.081 -12.055   9.452  0.00  0.00     0.209 HD
ENDBRANCH  28  29
ENDBRANCH   4  28
BRANCH   3  31
ATOM     31  O3  NP6 d          -6.149  -8.419  10.066  0.00  0.00    -0.390 OA
ATOM     32  H13 NP6 d          -6.164  -7.921   9.256  0.00  0.00     0.210 HD
ENDBRANCH   3  31
TORSDOF 10
ENDMDL
MODEL 4
REMARK VINA RESULT:      -7.4      3.372      4.815
REMARK  10 active torsions:
REMARK  status: ('A' for Active; 'I' for Inactive)
REMARK    1  A    between atoms: C1_2  and  C3_3 
REMARK    2  A    between atoms: C3_3  and  C4_4 
REMARK       I    between atoms: C4_4  and  N1_6 
REMARK    3  A    between atoms: N1_6  and  C5_7 
REMARK    4  A    between atoms: C6_8  and  O2_9 
REMARK    5  A    between atoms: C7_10  and  O3_11 
REMARK    6  A    between atoms: C8_12  and  C9_13 
REMARK    7  A    between atoms: C9_13  and  O4_14 
REMARK    8  A    between atoms: N2_17  and  O6_18 
REMARK    9  A    between atoms: O6_18  and  C11_19 
REMARK       I    between atoms: C11_19  and  N3_21 
REMARK   10  A    between atoms: N3_21  and  C12_22 
ROOT
ATOM      1  C5  NP6 d          -8.102 -12.365   7.906  0.00  0.00     0.195 C 
ATOM      2  C6  NP6 d          -8.848 -11.503   8.941  0.00  0.00     0.180 C 
ATOM      3  C7  NP6 d          -7.872 -10.818   9.883  0.00  0.00     0.180 C 
ATOM      4  C8  NP6 d          -6.997  -9.879   9.055  0.00  0.00     0.185 C 
ATOM      5  O5  NP6 d          -6.245 -10.611   8.097  0.00  0.00    -0.324 OA
ATOM      6  C10 NP6 d          -6.656 -11.863   7.710  0.00  0.00     0.194 C 
ATOM      7  N2  NP6 d          -5.731 -12.657   7.170  0.00  0.00    -0.100 NA
ENDROOT
BRANCH   1   8
ATOM      8  N1  NP6 d          -8.863 -12.456   6.623  0.00  0.00    -0.346 N 
ATOM      9  C4  NP6 d          -9.873 -13.298   6.367  0.00  0.00     0.218 C 
ATOM     10  O1  NP6 d         -10.318 -14.124   7.170  0.00  0.00    -0.274 OA
ATOM     11  H8  NP6 d          -8.593 -11.832   5.890  0.00  0.00     0.163 HD
BRANCH   9  12
ATOM     12  C3  NP6 d         -10.464 -13.184   4.944  0.00  0.00     0.102 C 
BRANCH  12  13
ATOM     13  C1  NP6 d         -10.915 -11.751   4.709  0.00  0.00     0.005 C 
ATOM     14  C2  NP6 d         -11.865 -11.624   3.524  0.00  0.00     0.005 C 
ENDBRANCH  12  13
ENDBRANCH   9  12
ENDBRANCH   1   8
BRANCH   7  15
ATOM     15  O6  NP6 d          -4.440 -12.198   7.055  0.00  0.00    -0.153 OA
BRANCH  15  16
ATOM     16  C11 NP6 d          -3.534 -13.164   6.650  0.00  0.00     0.389 C 
ATOM     17  O7  NP6 d          -2.386 -13.159   7.112  0.00  0.00    -0.236 OA
ATOM     18  N3  NP6 d          -3.971 -14.091   5.763  0.00  0.00    -0.301 N 
ATOM     19  H18 NP6 d          -4.943 -14.036   5.536  0.00  0.00     0.171 HD
BRANCH  18  20
ATOM     20  C12 NP6 d          -3.290 -15.083   5.137  0.00  0.00     0.036 A 
ATOM     21  C13 NP6 d          -3.326 -16.362   5.705  0.00  0.00     0.029 A 
ATOM     22  C14 NP6 d          -2.670 -17.445   5.109  0.00  0.00     0.002 A 
ATOM     23  C15 NP6 d          -1.966 -17.260   3.914  0.00  0.00     0.000 A 
ATOM     24  C16 NP6 d          -1.940 -15.994   3.324  0.00  0.00     0.002 A 
ATOM     25  C17 NP6 d          -2.598 -14.915   3.930  0.00  0.00     0.029 A 
ENDBRANCH  18  20
ENDBRANCH  15  16
ENDBRANCH   7  15
BRANCH   2  26
ATOM     26  O2  NP6 d          -9.740 -12.321   9.682  0.00  0.00    -0.390 OA
ATOM     27  H11 NP6 d         -10.625 -12.190   9.364  0.00  0.00     0.210 HD
ENDBRANCH   2  26
BRANCH   4  28
ATOM     28  C9  NP6 d          -5.982  -9.010   9.838  0.00  0.00     0.199 C 
BRANCH  28  29
ATOM     29  O4  NP6 d          -5.765  -9.536  11.142  0.00  0.00    -0.398 OA
ATOM     30  H17 NP6 d          -6.411  -9.176  11.739  0.00  0.00     0.209 HD
ENDBRANCH  28  29
ENDBRANCH   4  28
BRANCH   3  31
ATOM     31  O3  NP6 d          -8.577 -10.024  10.847  0.00  0.00    -0.390 OA
ATOM     32  H13 NP6 d          -9.292  -9.569  10.419  0.00  0.00     0.210 HD
ENDBRANCH   3  31
TORSDOF 10
ENDMDL
MODEL 5
REMARK VINA RESULT:      -7.1      3.204      4.969
REMARK  10 active torsions:
REMARK  status: ('A' for Active; 'I' for Inactive)
REMARK    1  A    between atoms: C1_2  and  C3_3 
REMARK    2  A    between atoms: C3_3  and  C4_4 
REMARK       I    between atoms: C4_4  and  N1_6 
REMARK    3  A    between atoms: N1_6  and  C5_7 
REMARK    4  A    between atoms: C6_8  and  O2_9 
REMARK    5  A    between atoms: C7_10  and  O3_11 
REMARK    6  A    between atoms: C8_12  and  C9_13 
REMARK    7  A    between atoms: C9_13  and  O4_14 
REMARK    8  A    between atoms: N2_17  and  O6_18 
REMARK    9  A    between atoms: O6_18  and  C11_19 
REMARK       I    between atoms: C11_19  and  N3_21 
REMARK   10  A    between atoms: N3_21  and  C12_22 
ROOT
ATOM      1  C5  NP6 d          -7.930 -11.870   9.305  0.00  0.00     0.195 C 
ATOM      2  C6  NP6 d          -8.346 -10.596  10.061  0.00  0.00     0.180 C 
ATOM      3  C7  NP6 d          -7.165  -9.999  10.810  0.00  0.00     0.180 C 
ATOM      4  C8  NP6 d          -6.111  -9.593   9.782  0.00  0.00     0.185 C 
ATOM      5  O5  NP6 d          -5.649 -10.730   9.065  0.00  0.00    -0.324 OA
ATOM      6  C10 NP6 d          -6.414 -11.869   9.012  0.00  0.00     0.194 C 
ATOM      7  N2  NP6 d          -5.781 -13.004   8.719  0.00  0.00    -0.100 NA
ENDROOT
BRANCH   1   8
ATOM      8  N1  NP6 d          -8.757 -12.068   8.076  0.00  0.00    -0.346 N 
ATOM      9  C4  NP6 d          -8.924 -11.176   7.090  0.00  0.00     0.218 C 
ATOM     10  O1  NP6 d          -8.410 -10.054   7.066  0.00  0.00    -0.274 OA
ATOM     11  H8  NP6 d          -9.227 -12.945   7.981  0.00  0.00     0.163 HD
BRANCH   9  12
ATOM     12  C3  NP6 d          -9.851 -11.644   5.946  0.00  0.00     0.102 C 
BRANCH  12  13
ATOM     13  C1  NP6 d          -9.609 -13.122   5.687  0.00  0.00     0.005 C 
ATOM     14  C2  NP6 d         -10.899 -13.933   5.678  0.00  0.00     0.005 C 
ENDBRANCH  12  13
ENDBRANCH   9  12
ENDBRANCH   1   8
BRANCH   7  15
ATOM     15  O6  NP6 d          -4.421 -12.978   8.513  0.00  0.00    -0.153 OA
BRANCH  15  16
ATOM     16  C11 NP6 d          -4.054 -12.983   7.178  0.00  0.00     0.389 C 
ATOM     17  O7  NP6 d          -4.239 -11.974   6.487  0.00  0.00    -0.236 OA
ATOM     18  N3  NP6 d          -3.483 -14.114   6.697  0.00  0.00    -0.301 N 
ATOM     19  H18 NP6 d          -3.309 -14.825   7.379  0.00  0.00     0.171 HD
BRANCH  18  20
ATOM     20  C12 NP6 d          -3.111 -14.430   5.431  0.00  0.00     0.036 A 
ATOM     21  C13 NP6 d          -1.796 -14.147   5.045  0.00  0.00     0.029 A 
ATOM     22  C14 NP6 d          -1.326 -14.461   3.765  0.00  0.00     0.002 A 
ATOM     23  C15 NP6 d          -2.178 -15.081   2.844  0.00  0.00     0.000 A 
ATOM     24  C16 NP6 d          -3.487 -15.389   3.222  0.00  0.00     0.002 A 
ATOM     25  C17 NP6 d          -3.949 -15.068   4.506  0.00  0.00     0.029 A 
ENDBRANCH  18  20
ENDBRANCH  15  16
ENDBRANCH   7  15
BRANCH   2  26
ATOM     26  O2  NP6 d          -9.387 -10.906  10.973  0.00  0.00    -0.390 OA
ATOM     27  H11 NP6 d          -9.031 -11.398  11.703  0.00  0.00     0.210 HD
ENDBRANCH   2  26
BRANCH   4  28
ATOM     28  C9  NP6 d          -4.851  -8.878  10.329  0.00  0.00     0.199 C 
BRANCH  28  29
ATOM     29  O4  NP6 d          -4.585  -9.275  11.669  0.00  0.00    -0.398 OA
ATOM     30  H17 NP6 d          -4.703  -8.531  12.248  0.00  0.00     0.209 HD
ENDBRANCH  28  29
ENDBRANCH   4  28
BRANCH   3  31
ATOM     31  O3  NP6 d          -7.565  -8.816  11.517  0.00  0.00    -0.390 OA
ATOM     32  H13 NP6 d          -8.258  -8.379  11.035  0.00  0.00     0.210 HD
ENDBRANCH   3  31
TORSDOF 10
ENDMDL
MODEL 6
REMARK VINA RESULT:      -6.9      5.168      8.335
REMARK  10 active torsions:
REMARK  status: ('A' for Active; 'I' for Inactive)
REMARK    1  A    between atoms: C1_2  and  C3_3 
REMARK    2  A    between atoms: C3_3  and  C4_4 
REMARK       I    between atoms: C4_4  and  N1_6 
REMARK    3  A    between atoms: N1_6  and  C5_7 
REMARK    4  A    between atoms: C6_8  and  O2_9 
REMARK    5  A    between atoms: C7_10  and  O3_11 
REMARK    6  A    between atoms: C8_12  and  C9_13 
REMARK    7  A    between atoms: C9_13  and  O4_14 
REMARK    8  A    between atoms: N2_17  and  O6_18 
REMARK    9  A    between atoms: O6_18  and  C11_19 
REMARK       I    between atoms: C11_19  and  N3_21 
REMARK   10  A    between atoms: N3_21  and  C12_22 
ROOT
ATOM      1  C5  NP6 d          -4.716 -17.019   7.528  0.00  0.00     0.195 C 
ATOM      2  C6  NP6 d          -4.137 -18.432   7.726  0.00  0.00     0.180 C 
ATOM      3  C7  NP6 d          -4.714 -19.086   8.971  0.00  0.00     0.180 C 
ATOM      4  C8  NP6 d          -6.220 -19.236   8.772  0.00  0.00     0.185 C 
ATOM      5  O5  NP6 d          -6.833 -17.963   8.618  0.00  0.00    -0.324 OA
ATOM      6  C10 NP6 d          -6.084 -16.880   8.230  0.00  0.00     0.194 C 
ATOM      7  N2  NP6 d          -6.580 -15.676   8.513  0.00  0.00    -0.100 NA
ENDROOT
BRANCH   1   8
ATOM      8  N1  NP6 d          -4.768 -16.650   6.081  0.00  0.00    -0.346 N 
ATOM      9  C4  NP6 d          -4.597 -15.420   5.578  0.00  0.00     0.218 C 
ATOM     10  O1  NP6 d          -4.370 -14.411   6.253  0.00  0.00    -0.274 OA
ATOM     11  H8  NP6 d          -4.947 -17.387   5.430  0.00  0.00     0.163 HD
BRANCH   9  12
ATOM     12  C3  NP6 d          -4.724 -15.327   4.041  0.00  0.00     0.102 C 
BRANCH  12  13
ATOM     13  C1  NP6 d          -3.332 -15.362   3.428  0.00  0.00     0.005 C 
ATOM     14  C2  NP6 d          -3.358 -15.220   1.911  0.00  0.00     0.005 C 
ENDBRANCH  12  13
ENDBRANCH   9  12
ENDBRANCH   1   8
BRANCH   7  15
ATOM     15  O6  NP6 d          -7.777 -15.585   9.184  0.00  0.00    -0.153 OA
BRANCH  15  16
ATOM     16  C11 NP6 d          -8.614 -14.589   8.711  0.00  0.00     0.389 C 
ATOM     17  O7  NP6 d          -9.467 -14.098   9.460  0.00  0.00    -0.236 OA
ATOM     18  N3  NP6 d          -8.435 -14.187   7.429  0.00  0.00    -0.301 N 
ATOM     19  H18 NP6 d          -7.655 -14.601   6.959  0.00  0.00     0.171 HD
BRANCH  18  20
ATOM     20  C12 NP6 d          -9.153 -13.308   6.686  0.00  0.00     0.036 A 
ATOM     21  C13 NP6 d          -8.873 -11.944   6.832  0.00  0.00     0.029 A 
ATOM     22  C14 NP6 d          -9.552 -10.974   6.086  0.00  0.00     0.002 A 
ATOM     23  C15 NP6 d         -10.529 -11.365   5.163  0.00  0.00     0.000 A 
ATOM     24  C16 NP6 d         -10.803 -12.723   4.990  0.00  0.00     0.002 A 
ATOM     25  C17 NP6 d         -10.120 -13.687   5.744  0.00  0.00     0.029 A 
ENDBRANCH  18  20
ENDBRANCH  15  16
ENDBRANCH   7  15
BRANCH   2  26
ATOM     26  O2  NP6 d          -2.725 -18.353   7.833  0.00  0.00    -0.390 OA
ATOM     27  H11 NP6 d          -2.467 -18.524   8.730  0.00  0.00     0.210 HD
ENDBRANCH   2  26
BRANCH   4  28
ATOM     28  C9  NP6 d          -6.997 -19.964   9.896  0.00  0.00     0.199 C 
BRANCH  28  29
ATOM     29  O4  NP6 d          -7.581 -19.030  10.796  0.00  0.00    -0.398 OA
ATOM     30  H17 NP6 d          -8.039 -18.360  10.302  0.00  0.00     0.209 HD
ENDBRANCH  28  29
ENDBRANCH   4  28
BRANCH   3  31
ATOM     31  O3  NP6 d          -4.162 -20.398   9.151  0.00  0.00    -0.390 OA
ATOM     32  H13 NP6 d          -4.858 -21.042   9.098  0.00  0.00     0.210 HD
ENDBRANCH   3  31
TORSDOF 10
ENDMDL
MODEL 7
REMARK VINA RESULT:      -6.9      5.262      7.205
REMARK  10 active torsions:
REMARK  status: ('A' for Active; 'I' for Inactive)
REMARK    1  A    between atoms: C1_2  and  C3_3 
REMARK    2  A    between atoms: C3_3  and  C4_4 
REMARK       I    between atoms: C4_4  and  N1_6 
REMARK    3  A    between atoms: N1_6  and  C5_7 
REMARK    4  A    between atoms: C6_8  and  O2_9 
REMARK    5  A    between atoms: C7_10  and  O3_11 
REMARK    6  A    between atoms: C8_12  and  C9_13 
REMARK    7  A    between atoms: C9_13  and  O4_14 
REMARK    8  A    between atoms: N2_17  and  O6_18 
REMARK    9  A    between atoms: O6_18  and  C11_19 
REMARK       I    between atoms: C11_19  and  N3_21 
REMARK   10  A    between atoms: N3_21  and  C12_22 
ROOT
ATOM      1  C5  NP6 d          -7.966 -15.263   8.963  0.00  0.00     0.195 C 
ATOM      2  C6  NP6 d          -9.063 -14.319   9.486  0.00  0.00     0.180 C 
ATOM      3  C7  NP6 d          -8.731 -12.870   9.166  0.00  0.00     0.180 C 
ATOM      4  C8  NP6 d          -8.687 -12.720   7.647  0.00  0.00     0.185 C 
ATOM      5  O5  NP6 d          -7.666 -13.539   7.093  0.00  0.00    -0.324 OA
ATOM      6  C10 NP6 d          -7.186 -14.614   7.800  0.00  0.00     0.194 C 
ATOM      7  N2  NP6 d          -5.983 -15.069   7.454  0.00  0.00    -0.100 NA
ENDROOT
BRANCH   1   8
ATOM      8  N1  NP6 d          -8.524 -16.603   8.609  0.00  0.00    -0.346 N 
ATOM      9  C4  NP6 d          -8.851 -17.572   9.476  0.00  0.00     0.218 C 
ATOM     10  O1  NP6 d          -8.732 -17.485  10.702  0.00  0.00    -0.274 OA
ATOM     11  H8  NP6 d          -8.667 -16.794   7.638  0.00  0.00     0.163 HD
BRANCH   9  12
ATOM     12  C3  NP6 d          -9.390 -18.866   8.826  0.00  0.00     0.102 C 
BRANCH  12  13
ATOM     13  C1  NP6 d          -8.739 -20.064   9.498  0.00  0.00     0.005 C 
ATOM     14  C2  NP6 d          -7.233 -20.115   9.272  0.00  0.00     0.005 C 
ENDBRANCH  12  13
ENDBRANCH   9  12
ENDBRANCH   1   8
BRANCH   7  15
ATOM     15  O6  NP6 d          -5.292 -14.438   6.446  0.00  0.00    -0.153 OA
BRANCH  15  16
ATOM     16  C11 NP6 d          -4.954 -15.267   5.390  0.00  0.00     0.389 C 
ATOM     17  O7  NP6 d          -5.385 -16.426   5.359  0.00  0.00    -0.236 OA
ATOM     18  N3  NP6 d          -4.166 -14.744   4.419  0.00  0.00    -0.301 N 
ATOM     19  H18 NP6 d          -3.959 -13.771   4.519  0.00  0.00     0.171 HD
BRANCH  18  20
ATOM     20  C12 NP6 d          -3.616 -15.340   3.332  0.00  0.00     0.036 A 
ATOM     21  C13 NP6 d          -4.193 -15.085   2.082  0.00  0.00     0.029 A 
ATOM     22  C14 NP6 d          -3.672 -15.642   0.909  0.00  0.00     0.002 A 
ATOM     23  C15 NP6 d          -2.543 -16.467   0.973  0.00  0.00     0.000 A 
ATOM     24  C16 NP6 d          -1.943 -16.712   2.209  0.00  0.00     0.002 A 
ATOM     25  C17 NP6 d          -2.474 -16.152   3.379  0.00  0.00     0.029 A 
ENDBRANCH  18  20
ENDBRANCH  15  16
ENDBRANCH   7  15
BRANCH   2  26
ATOM     26  O2  NP6 d          -9.201 -14.484  10.887  0.00  0.00    -0.390 OA
ATOM     27  H11 NP6 d          -8.366 -14.745  11.258  0.00  0.00     0.210 HD
ENDBRANCH   2  26
BRANCH   4  28
ATOM     28  C9  NP6 d          -8.447 -11.290   7.101  0.00  0.00     0.199 C 
BRANCH  28  29
ATOM     29  O4  NP6 d          -9.552 -10.444   7.393  0.00  0.00    -0.398 OA
ATOM     30  H17 NP6 d          -9.346  -9.554   7.130  0.00  0.00     0.209 HD
ENDBRANCH  28  29
ENDBRANCH   4  28
BRANCH   3  31
ATOM     31  O3  NP6 d          -9.755 -11.998   9.664  0.00  0.00    -0.390 OA
ATOM     32  H13 NP6 d          -9.779 -11.207   9.139  0.00  0.00     0.210 HD
ENDBRANCH   3  31
TORSDOF 10
ENDMDL
MODEL 8
REMARK VINA RESULT:      -6.7      3.220      8.026
REMARK  10 active torsions:
REMARK  status: ('A' for Active; 'I' for Inactive)
REMARK    1  A    between atoms: C1_2  and  C3_3 
REMARK    2  A    between atoms: C3_3  and  C4_4 
REMARK       I    between atoms: C4_4  and  N1_6 
REMARK    3  A    between atoms: N1_6  and  C5_7 
REMARK    4  A    between atoms: C6_8  and  O2_9 
REMARK    5  A    between atoms: C7_10  and  O3_11 
REMARK    6  A    between atoms: C8_12  and  C9_13 
REMARK    7  A    between atoms: C9_13  and  O4_14 
REMARK    8  A    between atoms: N2_17  and  O6_18 
REMARK    9  A    between atoms: O6_18  and  C11_19 
REMARK       I    between atoms: C11_19  and  N3_21 
REMARK   10  A    between atoms: N3_21  and  C12_22 
ROOT
ATOM      1  C5  NP6 d          -4.135 -13.875   8.768  0.00  0.00     0.195 C 
ATOM      2  C6  NP6 d          -2.939 -14.416   7.965  0.00  0.00     0.180 C 
ATOM      3  C7  NP6 d          -3.185 -15.849   7.522  0.00  0.00     0.180 C 
ATOM      4  C8  NP6 d          -4.396 -15.854   6.591  0.00  0.00     0.185 C 
ATOM      5  O5  NP6 d          -5.554 -15.400   7.277  0.00  0.00    -0.324 OA
ATOM      6  C10 NP6 d          -5.429 -14.641   8.414  0.00  0.00     0.194 C 
ATOM      7  N2  NP6 d          -6.479 -14.610   9.233  0.00  0.00    -0.100 NA
ENDROOT
BRANCH   1   8
ATOM      8  N1  NP6 d          -4.276 -12.396   8.607  0.00  0.00    -0.346 N 
ATOM      9  C4  NP6 d          -4.501 -11.517   9.593  0.00  0.00     0.218 C 
ATOM     10  O1  NP6 d          -4.625 -11.816  10.785  0.00  0.00    -0.274 OA
ATOM     11  H8  NP6 d          -4.194 -12.030   7.681  0.00  0.00     0.163 HD
BRANCH   9  12
ATOM     12  C3  NP6 d          -4.621 -10.047   9.133  0.00  0.00     0.102 C 
BRANCH  12  13
ATOM     13  C1  NP6 d          -5.037  -9.191  10.319  0.00  0.00     0.005 C 
ATOM     14  C2  NP6 d          -6.289  -8.370  10.036  0.00  0.00     0.005 C 
ENDBRANCH  12  13
ENDBRANCH   9  12
ENDBRANCH   1   8
BRANCH   7  15
ATOM     15  O6  NP6 d          -7.599 -15.342   8.915  0.00  0.00    -0.153 OA
BRANCH  15  16
ATOM     16  C11 NP6 d          -8.627 -14.591   8.373  0.00  0.00     0.389 C 
ATOM     17  O7  NP6 d          -9.741 -14.599   8.911  0.00  0.00    -0.236 OA
ATOM     18  N3  NP6 d          -8.345 -13.858   7.269  0.00  0.00    -0.301 N 
ATOM     19  H18 NP6 d          -7.386 -13.869   6.986  0.00  0.00     0.171 HD
BRANCH  18  20
ATOM     20  C12 NP6 d          -9.165 -13.110   6.488  0.00  0.00     0.036 A 
ATOM     21  C13 NP6 d          -9.095 -11.717   6.610  0.00  0.00     0.029 A 
ATOM     22  C14 NP6 d          -9.890 -10.874   5.826  0.00  0.00     0.002 A 
ATOM     23  C15 NP6 d         -10.772 -11.423   4.889  0.00  0.00     0.000 A 
ATOM     24  C16 NP6 d         -10.836 -12.810   4.740  0.00  0.00     0.002 A 
ATOM     25  C17 NP6 d         -10.038 -13.647   5.532  0.00  0.00     0.029 A 
ENDBRANCH  18  20
ENDBRANCH  15  16
ENDBRANCH   7  15
BRANCH   2  26
ATOM     26  O2  NP6 d          -1.768 -14.353   8.762  0.00  0.00    -0.390 OA
ATOM     27  H11 NP6 d          -1.440 -13.461   8.772  0.00  0.00     0.210 HD
ENDBRANCH   2  26
BRANCH   4  28
ATOM     28  C9  NP6 d          -4.770 -17.214   5.951  0.00  0.00     0.199 C 
BRANCH  28  29
ATOM     29  O4  NP6 d          -3.952 -17.483   4.819  0.00  0.00    -0.398 OA
ATOM     30  H17 NP6 d          -3.062 -17.652   5.106  0.00  0.00     0.209 HD
ENDBRANCH  28  29
ENDBRANCH   4  28
BRANCH   3  31
ATOM     31  O3  NP6 d          -2.061 -16.346   6.781  0.00  0.00    -0.390 OA
ATOM     32  H13 NP6 d          -2.098 -16.016   5.891  0.00  0.00     0.210 HD
ENDBRANCH   3  31
TORSDOF 10
ENDMDL
MODEL 9
REMARK VINA RESULT:      -6.5      3.930      7.319
REMARK  10 active torsions:
REMARK  status: ('A' for Active; 'I' for Inactive)
REMARK    1  A    between atoms: C1_2  and  C3_3 
REMARK    2  A    between atoms: C3_3  and  C4_4 
REMARK       I    between atoms: C4_4  and  N1_6 
REMARK    3  A    between atoms: N1_6  and  C5_7 
REMARK    4  A    between atoms: C6_8  and  O2_9 
REMARK    5  A    between atoms: C7_10  and  O3_11 
REMARK    6  A    between atoms: C8_12  and  C9_13 
REMARK    7  A    between atoms: C9_13  and  O4_14 
REMARK    8  A    between atoms: N2_17  and  O6_18 
REMARK    9  A    between atoms: O6_18  and  C11_19 
REMARK       I    between atoms: C11_19  and  N3_21 
REMARK   10  A    between atoms: N3_21  and  C12_22 
ROOT
ATOM      1  C5  NP6 d          -5.341 -10.831  10.300  0.00  0.00     0.195 C 
ATOM      2  C6  NP6 d          -6.526 -10.033  10.871  0.00  0.00     0.180 C 
ATOM      3  C7  NP6 d          -7.656  -9.939   9.859  0.00  0.00     0.180 C 
ATOM      4  C8  NP6 d          -8.156 -11.353   9.576  0.00  0.00     0.185 C 
ATOM      5  O5  NP6 d          -7.121 -12.145   9.009  0.00  0.00    -0.324 OA
ATOM      6  C10 NP6 d          -5.807 -11.785   9.179  0.00  0.00     0.194 C 
ATOM      7  N2  NP6 d          -4.932 -12.279   8.304  0.00  0.00    -0.100 NA
ENDROOT
BRANCH   1   8
ATOM      8  N1  NP6 d          -4.587 -11.534  11.382  0.00  0.00    -0.346 N 
ATOM      9  C4  NP6 d          -3.730 -10.964  12.239  0.00  0.00     0.218 C 
ATOM     10  O1  NP6 d          -3.444  -9.763  12.251  0.00  0.00    -0.274 OA
ATOM     11  H8  NP6 d          -4.735 -12.519  11.473  0.00  0.00     0.163 HD
BRANCH   9  12
ATOM     12  C3  NP6 d          -3.076 -11.939  13.244  0.00  0.00     0.102 C 
BRANCH  12  13
ATOM     13  C1  NP6 d          -2.852 -13.278  12.559  0.00  0.00     0.005 C 
ATOM     14  C2  NP6 d          -2.579 -14.403  13.549  0.00  0.00     0.005 C 
ENDBRANCH  12  13
ENDBRANCH   9  12
ENDBRANCH   1   8
BRANCH   7  15
ATOM     15  O6  NP6 d          -5.385 -13.086   7.286  0.00  0.00    -0.153 OA
BRANCH  15  16
ATOM     16  C11 NP6 d          -4.446 -13.993   6.826  0.00  0.00     0.389 C 
ATOM     17  O7  NP6 d          -3.318 -14.016   7.332  0.00  0.00    -0.236 OA
ATOM     18  N3  NP6 d          -4.831 -14.836   5.837  0.00  0.00    -0.301 N 
ATOM     19  H18 NP6 d          -5.795 -14.774   5.578  0.00  0.00     0.171 HD
BRANCH  18  20
ATOM     20  C12 NP6 d          -4.108 -15.751   5.145  0.00  0.00     0.036 A 
ATOM     21  C13 NP6 d          -3.433 -15.321   3.996  0.00  0.00     0.029 A 
ATOM     22  C14 NP6 d          -2.647 -16.197   3.239  0.00  0.00     0.002 A 
ATOM     23  C15 NP6 d          -2.518 -17.533   3.633  0.00  0.00     0.000 A 
ATOM     24  C16 NP6 d          -3.167 -17.971   4.790  0.00  0.00     0.002 A 
ATOM     25  C17 NP6 d          -3.955 -17.088   5.540  0.00  0.00     0.029 A 
ENDBRANCH  18  20
ENDBRANCH  15  16
ENDBRANCH   7  15
BRANCH   2  26
ATOM     26  O2  NP6 d          -6.090  -8.731  11.229  0.00  0.00    -0.390 OA
ATOM     27  H11 NP6 d          -6.780  -8.288  11.709  0.00  0.00     0.210 HD
ENDBRANCH   2  26
BRANCH   4  28
ATOM     28  C9  NP6 d          -9.374 -11.480   8.628  0.00  0.00     0.199 C 
BRANCH  28  29
ATOM     29  O4  NP6 d          -9.570 -10.279   7.891  0.00  0.00    -0.398 OA
ATOM     30  H17 NP6 d         -10.401 -10.321   7.432  0.00  0.00     0.209 HD
ENDBRANCH  28  29
ENDBRANCH   4  28
BRANCH   3  31
ATOM     31  O3  NP6 d          -8.752  -9.186  10.398  0.00  0.00    -0.390 OA
ATOM     32  H13 NP6 d          -9.289  -9.753  10.939  0.00  0.00     0.210 HD
ENDBRANCH   3  31
TORSDOF 10
ENDMDL
MODEL 10
REMARK VINA RESULT:      -6.5      4.477      7.315
REMARK  10 active torsions:
REMARK  status: ('A' for Active; 'I' for Inactive)
REMARK    1  A    between atoms: C1_2  and  C3_3 
REMARK    2  A    between atoms: C3_3  and  C4_4 
REMARK       I    between atoms: C4_4  and  N1_6 
REMARK    3  A    between atoms: N1_6  and  C5_7 
REMARK    4  A    between atoms: C6_8  and  O2_9 
REMARK    5  A    between atoms: C7_10  and  O3_11 
REMARK    6  A    between atoms: C8_12  and  C9_13 
REMARK    7  A    between atoms: C9_13  and  O4_14 
REMARK    8  A    between atoms: N2_17  and  O6_18 
REMARK    9  A    between atoms: O6_18  and  C11_19 
REMARK       I    between atoms: C11_19  and  N3_21 
REMARK   10  A    between atoms: N3_21  and  C12_22 
ROOT
ATOM      1  C5  NP6 d          -7.854 -12.819   8.299  0.00  0.00     0.195 C 
ATOM      2  C6  NP6 d          -8.827 -13.207   9.427  0.00  0.00     0.180 C 
ATOM      3  C7  NP6 d          -9.311 -14.638   9.259  0.00  0.00     0.180 C 
ATOM      4  C8  NP6 d          -8.100 -15.562   9.367  0.00  0.00     0.185 C 
ATOM      5  O5  NP6 d          -7.168 -15.287   8.330  0.00  0.00    -0.324 OA
ATOM      6  C10 NP6 d          -7.187 -14.072   7.691  0.00  0.00     0.194 C 
ATOM      7  N2  NP6 d          -6.619 -14.019   6.487  0.00  0.00    -0.100 NA
ENDROOT
BRANCH   1   8
ATOM      8  N1  NP6 d          -6.863 -11.802   8.761  0.00  0.00    -0.346 N 
ATOM      9  C4  NP6 d          -7.051 -10.475   8.784  0.00  0.00     0.218 C 
ATOM     10  O1  NP6 d          -8.086  -9.907   8.421  0.00  0.00    -0.274 OA
ATOM     11  H8  NP6 d          -5.979 -12.141   9.081  0.00  0.00     0.163 HD
BRANCH   9  12
ATOM     12  C3  NP6 d          -5.843  -9.660   9.295  0.00  0.00     0.102 C 
BRANCH  12  13
ATOM     13  C1  NP6 d          -5.850  -9.666  10.815  0.00  0.00     0.005 C 
ATOM     14  C2  NP6 d          -4.755 -10.549  11.402  0.00  0.00     0.005 C 
ENDBRANCH  12  13
ENDBRANCH   9  12
ENDBRANCH   1   8
BRANCH   7  15
ATOM     15  O6  NP6 d          -6.077 -15.164   5.951  0.00  0.00    -0.153 OA
BRANCH  15  16
ATOM     16  C11 NP6 d          -4.909 -14.954   5.239  0.00  0.00     0.389 C 
ATOM     17  O7  NP6 d          -3.970 -14.346   5.767  0.00  0.00    -0.236 OA
ATOM     18  N3  NP6 d          -4.851 -15.454   3.981  0.00  0.00    -0.301 N 
ATOM     19  H18 NP6 d          -5.641 -16.000   3.705  0.00  0.00     0.171 HD
BRANCH  18  20
ATOM     20  C12 NP6 d          -3.884 -15.326   3.038  0.00  0.00     0.036 A 
ATOM     21  C13 NP6 d          -4.282 -15.065   1.722  0.00  0.00     0.029 A 
ATOM     22  C14 NP6 d          -3.346 -14.897   0.695  0.00  0.00     0.002 A 
ATOM     23  C15 NP6 d          -1.979 -14.981   0.979  0.00  0.00     0.000 A 
ATOM     24  C16 NP6 d          -1.566 -15.218   2.292  0.00  0.00     0.002 A 
ATOM     25  C17 NP6 d          -2.511 -15.388   3.313  0.00  0.00     0.029 A 
ENDBRANCH  18  20
ENDBRANCH  15  16
ENDBRANCH   7  15
BRANCH   2  26
ATOM     26  O2  NP6 d          -9.935 -12.320   9.421  0.00  0.00    -0.390 OA
ATOM     27  H11 NP6 d         -10.494 -12.519   8.679  0.00  0.00     0.210 HD
ENDBRANCH   2  26
BRANCH   4  28
ATOM     28  C9  NP6 d          -8.383 -17.083   9.311  0.00  0.00     0.199 C 
BRANCH  28  29
ATOM     29  O4  NP6 d          -8.739 -17.580  10.595  0.00  0.00    -0.398 OA
ATOM     30  H17 NP6 d          -9.424 -18.233  10.502  0.00  0.00     0.209 HD
ENDBRANCH  28  29
ENDBRANCH   4  28
BRANCH   3  31
ATOM     31  O3  NP6 d         -10.223 -14.986  10.311  0.00  0.00    -0.390 OA
ATOM     32  H13 NP6 d         -10.495 -14.198  10.766  0.00  0.00     0.210 HD
ENDBRANCH   3  31
TORSDOF 10
ENDMDL
