MODEL 1
REMARK VINA RESULT:      -6.2      0.000      0.000
REMARK  2 active torsions:
REMARK  status: ('A' for Active; 'I' for Inactive)
REMARK    1  A    between atoms: C4_4  and  S_7 
REMARK    2  A    between atoms: S_7  and  N2_8 
ROOT
ATOM      1  C1  FBV d          16.755   6.462  14.570  0.00  0.00     0.003 A 
ATOM      2  C2  FBV d          15.403   6.301  14.858  0.00  0.00     0.002 A 
ATOM      3  C3  FBV d          14.925   5.190  15.573  0.00  0.00     0.028 A 
ATOM      4  C4  FBV d          15.843   4.179  15.981  0.00  0.00     0.117 A 
ATOM      5  C5  FBV d          17.217   4.432  15.648  0.00  0.00     0.139 A 
ATOM      6  C6  FBV d          17.667   5.531  14.970  0.00  0.00     0.044 A 
ATOM      7  F   FBV d          18.092   3.505  16.095  0.00  0.00    -0.204 F 
ENDROOT
BRANCH   4   8
ATOM      8  S   FBV d          15.330   2.753  16.874  0.00  0.00     0.259 S 
ATOM      9  O1  FBV d          15.860   1.615  16.099  0.00  0.00    -0.201 OA
ATOM     10  O2  FBV d          15.801   2.975  18.198  0.00  0.00    -0.201 OA
BRANCH   8  11
ATOM     11  N2  FBV d          13.728   2.737  16.882  0.00  0.00    -0.324 N 
ATOM     12  H5  FBV d          13.233   1.993  16.433  0.00  0.00     0.169 HD
ATOM     13  H6  FBV d          13.223   3.471  17.335  0.00  0.00     0.169 HD
ENDBRANCH   8  11
ENDBRANCH   4   8
TORSDOF 2
ENDMDL
MODEL 2
REMARK VINA RESULT:      -5.8      1.918      2.265
REMARK  2 active torsions:
REMARK  status: ('A' for Active; 'I' for Inactive)
REMARK    1  A    between atoms: C4_4  and  S_7 
REMARK    2  A    between atoms: S_7  and  N2_8 
ROOT
ATOM      1  C1  FBV d          14.729   6.730  15.622  0.00  0.00     0.003 A 
ATOM      2  C2  FBV d          14.229   5.717  16.435  0.00  0.00     0.002 A 
ATOM      3  C3  FBV d          14.828   4.446  16.489  0.00  0.00     0.028 A 
ATOM      4  C4  FBV d          15.953   4.174  15.659  0.00  0.00     0.117 A 
ATOM      5  C5  FBV d          16.404   5.278  14.860  0.00  0.00     0.139 A 
ATOM      6  C6  FBV d          15.822   6.515  14.836  0.00  0.00     0.044 A 
ATOM      7  F   FBV d          17.512   5.036  14.124  0.00  0.00    -0.204 F 
ENDROOT
BRANCH   4   8
ATOM      8  S   FBV d          16.760   2.611  15.659  0.00  0.00     0.259 S 
ATOM      9  O1  FBV d          18.115   2.888  16.174  0.00  0.00    -0.201 OA
ATOM     10  O2  FBV d          15.893   1.762  16.401  0.00  0.00    -0.201 OA
BRANCH   8  11
ATOM     11  N2  FBV d          16.824   2.100  14.141  0.00  0.00    -0.324 N 
ATOM     12  H5  FBV d          17.697   2.089  13.654  0.00  0.00     0.169 HD
ATOM     13  H6  FBV d          15.991   1.793  13.681  0.00  0.00     0.169 HD
ENDBRANCH   8  11
ENDBRANCH   4   8
TORSDOF 2
ENDMDL
MODEL 3
REMARK VINA RESULT:      -5.6      3.108      3.683
REMARK  2 active torsions:
REMARK  status: ('A' for Active; 'I' for Inactive)
REMARK    1  A    between atoms: C4_4  and  S_7 
REMARK    2  A    between atoms: S_7  and  N2_8 
ROOT
ATOM      1  C1  FBV d          14.192   3.006  17.162  0.00  0.00     0.003 A 
ATOM      2  C2  FBV d          14.038   4.278  16.619  0.00  0.00     0.002 A 
ATOM      3  C3  FBV d          15.048   4.885  15.853  0.00  0.00     0.028 A 
ATOM      4  C4  FBV d          16.280   4.197  15.660  0.00  0.00     0.117 A 
ATOM      5  C5  FBV d          16.348   2.888  16.249  0.00  0.00     0.139 A 
ATOM      6  C6  FBV d          15.346   2.305  16.973  0.00  0.00     0.044 A 
ATOM      7  F   FBV d          17.492   2.212  16.006  0.00  0.00    -0.204 F 
ENDROOT
BRANCH   4   8
ATOM      8  S   FBV d          17.600   4.883  14.721  0.00  0.00     0.259 S 
ATOM      9  O1  FBV d          17.128   6.228  14.340  0.00  0.00    -0.201 OA
ATOM     10  O2  FBV d          18.740   4.756  15.563  0.00  0.00    -0.201 OA
BRANCH   8  11
ATOM     11  N2  FBV d          17.799   3.964  13.423  0.00  0.00    -0.324 N 
ATOM     12  H5  FBV d          18.530   4.170  12.773  0.00  0.00     0.169 HD
ATOM     13  H6  FBV d          17.192   3.185  13.264  0.00  0.00     0.169 HD
ENDBRANCH   8  11
ENDBRANCH   4   8
TORSDOF 2
ENDMDL
MODEL 4
REMARK VINA RESULT:      -5.6      1.910      2.365
REMARK  2 active torsions:
REMARK  status: ('A' for Active; 'I' for Inactive)
REMARK    1  A    between atoms: C4_4  and  S_7 
REMARK    2  A    between atoms: S_7  and  N2_8 
ROOT
ATOM      1  C1  FBV d          16.194   6.549  14.371  0.00  0.00     0.003 A 
ATOM      2  C2  FBV d          17.006   5.420  14.409  0.00  0.00     0.002 A 
ATOM      3  C3  FBV d          16.725   4.332  15.253  0.00  0.00     0.028 A 
ATOM      4  C4  FBV d          15.599   4.403  16.124  0.00  0.00     0.117 A 
ATOM      5  C5  FBV d          14.815   5.600  16.012  0.00  0.00     0.139 A 
ATOM      6  C6  FBV d          15.092   6.640  15.168  0.00  0.00     0.044 A 
ATOM      7  F   FBV d          13.711   5.635  16.791  0.00  0.00    -0.204 F 
ENDROOT
BRANCH   4   8
ATOM      8  S   FBV d          15.176   3.090  17.217  0.00  0.00     0.259 S 
ATOM      9  O1  FBV d          13.837   2.654  16.777  0.00  0.00    -0.201 OA
ATOM     10  O2  FBV d          16.270   2.185  17.125  0.00  0.00    -0.201 OA
BRANCH   8  11
ATOM     11  N2  FBV d          15.118   3.696  18.699  0.00  0.00    -0.324 N 
ATOM     12  H5  FBV d          15.014   3.086  19.484  0.00  0.00     0.169 HD
ATOM     13  H6  FBV d          15.185   4.684  18.839  0.00  0.00     0.169 HD
ENDBRANCH   8  11
ENDBRANCH   4   8
TORSDOF 2
ENDMDL
MODEL 5
REMARK VINA RESULT:      -5.6      4.280      4.645
REMARK  2 active torsions:
REMARK  status: ('A' for Active; 'I' for Inactive)
REMARK    1  A    between atoms: C4_4  and  S_7 
REMARK    2  A    between atoms: S_7  and  N2_8 
ROOT
ATOM      1  C1  FBV d          17.446   3.996  15.715  0.00  0.00     0.003 A 
ATOM      2  C2  FBV d          17.473   5.179  14.983  0.00  0.00     0.002 A 
ATOM      3  C3  FBV d          17.204   5.204  13.604  0.00  0.00     0.028 A 
ATOM      4  C4  FBV d          16.936   3.979  12.927  0.00  0.00     0.117 A 
ATOM      5  C5  FBV d          16.922   2.811  13.762  0.00  0.00     0.139 A 
ATOM      6  C6  FBV d          17.164   2.809  15.108  0.00  0.00     0.044 A 
ATOM      7  F   FBV d          16.601   1.661  13.129  0.00  0.00    -0.204 F 
ENDROOT
BRANCH   4   8
ATOM      8  S   FBV d          16.595   3.917  11.202  0.00  0.00     0.259 S 
ATOM      9  O1  FBV d          17.671   3.079  10.638  0.00  0.00    -0.201 OA
ATOM     10  O2  FBV d          15.247   3.468  11.122  0.00  0.00    -0.201 OA
BRANCH   8  11
ATOM     11  N2  FBV d          16.686   5.413  10.637  0.00  0.00    -0.324 N 
ATOM     12  H5  FBV d          15.987   6.084  10.885  0.00  0.00     0.169 HD
ATOM     13  H6  FBV d          17.440   5.677  10.037  0.00  0.00     0.169 HD
ENDBRANCH   8  11
ENDBRANCH   4   8
TORSDOF 2
ENDMDL
MODEL 6
REMARK VINA RESULT:      -5.5      3.504      4.108
REMARK  2 active torsions:
REMARK  status: ('A' for Active; 'I' for Inactive)
REMARK    1  A    between atoms: C4_4  and  S_7 
REMARK    2  A    between atoms: S_7  and  N2_8 
ROOT
ATOM      1  C1  FBV d          14.745   3.722  17.595  0.00  0.00     0.003 A 
ATOM      2  C2  FBV d          15.802   2.935  17.149  0.00  0.00     0.002 A 
ATOM      3  C3  FBV d          16.454   3.191  15.931  0.00  0.00     0.028 A 
ATOM      4  C4  FBV d          15.994   4.261  15.109  0.00  0.00     0.117 A 
ATOM      5  C5  FBV d          14.904   5.022  15.652  0.00  0.00     0.139 A 
ATOM      6  C6  FBV d          14.296   4.772  16.851  0.00  0.00     0.044 A 
ATOM      7  F   FBV d          14.515   6.077  14.901  0.00  0.00    -0.204 F 
ENDROOT
BRANCH   4   8
ATOM      8  S   FBV d          16.747   4.648  13.567  0.00  0.00     0.259 S 
ATOM      9  O1  FBV d          15.672   4.473  12.571  0.00  0.00    -0.201 OA
ATOM     10  O2  FBV d          17.313   5.939  13.762  0.00  0.00    -0.201 OA
BRANCH   8  11
ATOM     11  N2  FBV d          17.924   3.589  13.324  0.00  0.00    -0.324 N 
ATOM     12  H5  FBV d          17.970   3.081  12.464  0.00  0.00     0.169 HD
ATOM     13  H6  FBV d          18.613   3.435  14.033  0.00  0.00     0.169 HD
ENDBRANCH   8  11
ENDBRANCH   4   8
TORSDOF 2
ENDMDL
MODEL 7
REMARK VINA RESULT:      -5.5      3.716      4.069
REMARK  2 active torsions:
REMARK  status: ('A' for Active; 'I' for Inactive)
REMARK    1  A    between atoms: C4_4  and  S_7 
REMARK    2  A    between atoms: S_7  and  N2_8 
ROOT
ATOM      1  C1  FBV d          16.350   2.325  11.112  0.00  0.00     0.003 A 
ATOM      2  C2  FBV d          16.807   1.383  12.028  0.00  0.00     0.002 A 
ATOM      3  C3  FBV d          17.056   1.714  13.371  0.00  0.00     0.028 A 
ATOM      4  C4  FBV d          16.874   3.062  13.798  0.00  0.00     0.117 A 
ATOM      5  C5  FBV d          16.393   3.962  12.788  0.00  0.00     0.139 A 
ATOM      6  C6  FBV d          16.135   3.616  11.491  0.00  0.00     0.044 A 
ATOM      7  F   FBV d          16.158   5.224  13.214  0.00  0.00    -0.204 F 
ENDROOT
BRANCH   4   8
ATOM      8  S   FBV d          17.167   3.566  15.458  0.00  0.00     0.259 S 
ATOM      9  O1  FBV d          15.917   4.231  15.873  0.00  0.00    -0.201 OA
ATOM     10  O2  FBV d          17.580   2.378  16.123  0.00  0.00    -0.201 OA
BRANCH   8  11
ATOM     11  N2  FBV d          18.384   4.609  15.438  0.00  0.00    -0.324 N 
ATOM     12  H5  FBV d          19.163   4.455  14.831  0.00  0.00     0.169 HD
ATOM     13  H6  FBV d          18.364   5.412  16.033  0.00  0.00     0.169 HD
ENDBRANCH   8  11
ENDBRANCH   4   8
TORSDOF 2
ENDMDL
MODEL 8
REMARK VINA RESULT:      -5.4      4.128      4.584
REMARK  2 active torsions:
REMARK  status: ('A' for Active; 'I' for Inactive)
REMARK    1  A    between atoms: C4_4  and  S_7 
REMARK    2  A    between atoms: S_7  and  N2_8 
ROOT
ATOM      1  C1  FBV d          17.358   3.786  15.900  0.00  0.00     0.003 A 
ATOM      2  C2  FBV d          17.028   2.510  15.455  0.00  0.00     0.002 A 
ATOM      3  C3  FBV d          16.787   2.237  14.097  0.00  0.00     0.028 A 
ATOM      4  C4  FBV d          16.843   3.304  13.155  0.00  0.00     0.117 A 
ATOM      5  C5  FBV d          17.197   4.584  13.702  0.00  0.00     0.139 A 
ATOM      6  C6  FBV d          17.450   4.826  15.024  0.00  0.00     0.044 A 
ATOM      7  F   FBV d          17.314   5.580  12.795  0.00  0.00    -0.204 F 
ENDROOT
BRANCH   4   8
ATOM      8  S   FBV d          16.550   3.055  11.438  0.00  0.00     0.259 S 
ATOM      9  O1  FBV d          15.250   3.704  11.182  0.00  0.00    -0.201 OA
ATOM     10  O2  FBV d          17.719   3.557  10.801  0.00  0.00    -0.201 OA
BRANCH   8  11
ATOM     11  N2  FBV d          16.453   1.475  11.189  0.00  0.00    -0.324 N 
ATOM     12  H5  FBV d          17.105   0.858  11.631  0.00  0.00     0.169 HD
ATOM     13  H6  FBV d          15.741   1.105  10.593  0.00  0.00     0.169 HD
ENDBRANCH   8  11
ENDBRANCH   4   8
TORSDOF 2
ENDMDL
MODEL 9
REMARK VINA RESULT:      -5.3      3.314      4.157
REMARK  2 active torsions:
REMARK  status: ('A' for Active; 'I' for Inactive)
REMARK    1  A    between atoms: C4_4  and  S_7 
REMARK    2  A    between atoms: S_7  and  N2_8 
ROOT
ATOM      1  C1  FBV d          14.299   3.042  17.249  0.00  0.00     0.003 A 
ATOM      2  C2  FBV d          15.614   2.588  17.256  0.00  0.00     0.002 A 
ATOM      3  C3  FBV d          16.621   3.219  16.506  0.00  0.00     0.028 A 
ATOM      4  C4  FBV d          16.279   4.330  15.682  0.00  0.00     0.117 A 
ATOM      5  C5  FBV d          14.902   4.734  15.743  0.00  0.00     0.139 A 
ATOM      6  C6  FBV d          13.940   4.121  16.497  0.00  0.00     0.044 A 
ATOM      7  F   FBV d          14.596   5.829  15.013  0.00  0.00    -0.204 F 
ENDROOT
BRANCH   4   8
ATOM      8  S   FBV d          17.473   5.176  14.706  0.00  0.00     0.259 S 
ATOM      9  O1  FBV d          18.772   4.807  15.300  0.00  0.00    -0.201 OA
ATOM     10  O2  FBV d          17.182   4.784  13.369  0.00  0.00    -0.201 OA
BRANCH   8  11
ATOM     11  N2  FBV d          17.202   6.747  14.864  0.00  0.00    -0.324 N 
ATOM     12  H5  FBV d          17.222   7.169  15.770  0.00  0.00     0.169 HD
ATOM     13  H6  FBV d          17.012   7.306  14.057  0.00  0.00     0.169 HD
ENDBRANCH   8  11
ENDBRANCH   4   8
TORSDOF 2
ENDMDL
MODEL 10
REMARK VINA RESULT:      -5.2      3.567      3.958
REMARK  2 active torsions:
REMARK  status: ('A' for Active; 'I' for Inactive)
REMARK    1  A    between atoms: C4_4  and  S_7 
REMARK    2  A    between atoms: S_7  and  N2_8 
ROOT
ATOM      1  C1  FBV d          17.358   2.151  11.174  0.00  0.00     0.003 A 
ATOM      2  C2  FBV d          17.798   3.464  11.306  0.00  0.00     0.002 A 
ATOM      3  C3  FBV d          17.837   4.111  12.553  0.00  0.00     0.028 A 
ATOM      4  C4  FBV d          17.376   3.417  13.709  0.00  0.00     0.117 A 
ATOM      5  C5  FBV d          16.948   2.066  13.480  0.00  0.00     0.139 A 
ATOM      6  C6  FBV d          16.938   1.445  12.262  0.00  0.00     0.044 A 
ATOM      7  F   FBV d          16.575   1.389  14.589  0.00  0.00    -0.204 F 
ENDROOT
BRANCH   4   8
ATOM      8  S   FBV d          17.383   4.152  15.308  0.00  0.00     0.259 S 
ATOM      9  O1  FBV d          18.200   3.243  16.134  0.00  0.00    -0.201 OA
ATOM     10  O2  FBV d          17.831   5.484  15.085  0.00  0.00    -0.201 OA
BRANCH   8  11
ATOM     11  N2  FBV d          15.869   4.186  15.831  0.00  0.00    -0.324 N 
ATOM     12  H5  FBV d          15.244   3.440  15.602  0.00  0.00     0.169 HD
ATOM     13  H6  FBV d          15.549   4.954  16.386  0.00  0.00     0.169 HD
ENDBRANCH   8  11
ENDBRANCH   4   8
TORSDOF 2
ENDMDL
