MODEL 1
REMARK VINA RESULT:     -11.6      0.000      0.000
REMARK  4 active torsions:
REMARK  status: ('A' for Active; 'I' for Inactive)
REMARK    1  A    between atoms: C15_2  and  C16_23 
REMARK    2  A    between atoms: C04_13  and  C02_11 
REMARK    3  A    between atoms: N08_17  and  C07_16 
REMARK    4  A    between atoms: C09_18  and  N08_17 
ROOT
ATOM      1  C13 ZZL d           0.463  -8.110  -4.339  0.00  0.00     0.192 C 
ATOM      2  C15 ZZL d           1.740 -10.177  -4.332  0.00  0.00     0.079 C 
ATOM      3  C24 ZZL d           3.104  -9.656  -4.711  0.00  0.00     0.007 A 
ATOM      4  C26 ZZL d           5.184  -9.913  -5.872  0.00  0.00     0.035 A 
ATOM      5  C28 ZZL d           5.632  -8.686  -5.343  0.00  0.00     0.025 A 
ATOM      6  C09 ZZL d           2.934  -5.909  -1.725  0.00  0.00     0.727 A 
ATOM      7  N10 ZZL d           1.560  -5.731  -1.717  0.00  0.00    -0.074 NA
ATOM      8  C11 ZZL d           0.794  -6.459  -2.563  0.00  0.00     0.147 A 
ATOM      9  C12 ZZL d           1.396  -7.352  -3.386  0.00  0.00     0.010 A 
ATOM     10  N14 ZZL d           0.661  -9.530  -4.202  0.00  0.00    -0.283 NA
ATOM     11  C25 ZZL d           3.915 -10.403  -5.548  0.00  0.00     0.038 A 
ATOM     12 CL1  ZZL d           6.181 -10.859  -7.007  0.00  0.00    -0.084 Cl
ATOM     13  C29 ZZL d           4.811  -7.939  -4.492  0.00  0.00     0.016 A 
ATOM     14  C30 ZZL d           3.543  -8.438  -4.177  0.00  0.00     0.007 A 
ATOM     15  C31 ZZL d           2.791  -7.539  -3.381  0.00  0.00     0.096 A 
ATOM     16  N32 ZZL d           3.555  -6.823  -2.577  0.00  0.00    -0.061 NA
ENDROOT
BRANCH   6  17
ATOM     17  N08 ZZL d           3.752  -5.095  -0.870  0.00  0.00    -0.188 N 
ATOM     18  H   ZZL d           3.198  -4.451  -0.306  0.00  0.00     0.184 HD
BRANCH  17  19
ATOM     19  C07 ZZL d           5.164  -4.966  -0.615  0.00  0.00     0.049 A 
ATOM     20  C06 ZZL d           5.576  -4.133   0.435  0.00  0.00     0.031 A 
ATOM     21  C05 ZZL d           6.928  -4.076   0.777  0.00  0.00     0.020 A 
ATOM     22  C04 ZZL d           7.842  -4.852   0.059  0.00  0.00     0.041 A 
ATOM     23  C34 ZZL d           7.428  -5.683  -0.983  0.00  0.00     0.020 A 
ATOM     24  C33 ZZL d           6.075  -5.746  -1.323  0.00  0.00     0.031 A 
BRANCH  22  25
ATOM     25  C02 ZZL d           9.311  -4.789   0.424  0.00  0.00     0.209 C 
ATOM     26  O01 ZZL d           9.809  -3.734   0.612  0.00  0.00    -0.644 OA
ATOM     27  O03 ZZL d          10.052  -5.968   0.533  0.00  0.00    -0.644 OA
ENDBRANCH  22  25
ENDBRANCH  17  19
ENDBRANCH   6  17
BRANCH   2  28
ATOM     28  C16 ZZL d           1.809 -11.676  -4.077  0.00  0.00     0.070 A 
ATOM     29  C17 ZZL d           2.431 -12.167  -2.927  0.00  0.00     0.132 A 
ATOM     30  F18 ZZL d           2.901 -11.302  -1.987  0.00  0.00    -0.205 F 
ATOM     31  C19 ZZL d           2.540 -13.546  -2.719  0.00  0.00     0.043 A 
ATOM     32  C20 ZZL d           2.022 -14.446  -3.656  0.00  0.00     0.006 A 
ATOM     33  C21 ZZL d           1.394 -13.959  -4.808  0.00  0.00     0.043 A 
ATOM     34  C22 ZZL d           1.293 -12.576  -5.018  0.00  0.00     0.132 A 
ATOM     35  F23 ZZL d           0.653 -12.106  -6.126  0.00  0.00    -0.205 F 
ENDBRANCH   2  28
TORSDOF 4
ENDMDL
MODEL 2
REMARK VINA RESULT:     -11.6      0.082      1.427
REMARK  4 active torsions:
REMARK  status: ('A' for Active; 'I' for Inactive)
REMARK    1  A    between atoms: C15_2  and  C16_23 
REMARK    2  A    between atoms: C04_13  and  C02_11 
REMARK    3  A    between atoms: N08_17  and  C07_16 
REMARK    4  A    between atoms: C09_18  and  N08_17 
ROOT
ATOM      1  C13 ZZL d           0.504  -8.076  -4.364  0.00  0.00     0.192 C 
ATOM      2  C15 ZZL d           1.777 -10.145  -4.365  0.00  0.00     0.079 C 
ATOM      3  C24 ZZL d           3.149  -9.623  -4.714  0.00  0.00     0.007 A 
ATOM      4  C26 ZZL d           5.247  -9.867  -5.843  0.00  0.00     0.035 A 
ATOM      5  C28 ZZL d           5.688  -8.649  -5.290  0.00  0.00     0.025 A 
ATOM      6  C09 ZZL d           2.934  -5.916  -1.680  0.00  0.00     0.727 A 
ATOM      7  N10 ZZL d           1.561  -5.736  -1.692  0.00  0.00    -0.074 NA
ATOM      8  C11 ZZL d           0.808  -6.450  -2.561  0.00  0.00     0.147 A 
ATOM      9  C12 ZZL d           1.422  -7.333  -3.385  0.00  0.00     0.010 A 
ATOM     10  N14 ZZL d           0.698  -9.498  -4.244  0.00  0.00    -0.283 NA
ATOM     11  C25 ZZL d           3.971 -10.360  -5.547  0.00  0.00     0.038 A 
ATOM     12 CL1  ZZL d           6.261 -10.800  -6.974  0.00  0.00    -0.084 Cl
ATOM     13  C29 ZZL d           4.854  -7.912  -4.442  0.00  0.00     0.016 A 
ATOM     14  C30 ZZL d           3.581  -8.412  -4.155  0.00  0.00     0.007 A 
ATOM     15  C31 ZZL d           2.816  -7.523  -3.360  0.00  0.00     0.096 A 
ATOM     16  N32 ZZL d           3.568  -6.819  -2.534  0.00  0.00    -0.061 NA
ENDROOT
BRANCH   6  17
ATOM     17  N08 ZZL d           3.740  -5.115  -0.800  0.00  0.00    -0.188 N 
ATOM     18  H   ZZL d           3.174  -4.513  -0.201  0.00  0.00     0.184 HD
BRANCH  17  19
ATOM     19  C07 ZZL d           5.151  -4.953  -0.558  0.00  0.00     0.049 A 
ATOM     20  C06 ZZL d           5.553  -4.126   0.500  0.00  0.00     0.031 A 
ATOM     21  C05 ZZL d           6.906  -4.039   0.829  0.00  0.00     0.020 A 
ATOM     22  C04 ZZL d           7.832  -4.781   0.090  0.00  0.00     0.041 A 
ATOM     23  C34 ZZL d           7.428  -5.607  -0.960  0.00  0.00     0.020 A 
ATOM     24  C33 ZZL d           6.074  -5.699  -1.288  0.00  0.00     0.031 A 
BRANCH  22  25
ATOM     25  C02 ZZL d           9.302  -4.686   0.440  0.00  0.00     0.209 C 
ATOM     26  O01 ZZL d           9.785  -3.619   0.600  0.00  0.00    -0.644 OA
ATOM     27  O03 ZZL d          10.064  -5.850   0.569  0.00  0.00    -0.644 OA
ENDBRANCH  22  25
ENDBRANCH  17  19
ENDBRANCH   6  17
BRANCH   2  28
ATOM     28  C16 ZZL d           1.840 -11.648  -4.129  0.00  0.00     0.070 A 
ATOM     29  C17 ZZL d           1.292 -12.531  -5.063  0.00  0.00     0.132 A 
ATOM     30  F18 ZZL d           0.778 -12.053  -6.229  0.00  0.00    -0.205 F 
ATOM     31  C19 ZZL d           1.304 -13.909  -4.820  0.00  0.00     0.043 A 
ATOM     32  C20 ZZL d           1.869 -14.416  -3.646  0.00  0.00     0.006 A 
ATOM     33  C21 ZZL d           2.423 -13.535  -2.710  0.00  0.00     0.043 A 
ATOM     34  C22 ZZL d           2.403 -12.155  -2.951  0.00  0.00     0.132 A 
ATOM     35  F23 ZZL d           2.970 -11.302  -2.051  0.00  0.00    -0.205 F 
ENDBRANCH   2  28
TORSDOF 4
ENDMDL
MODEL 3
REMARK VINA RESULT:     -10.8      0.426      1.757
REMARK  4 active torsions:
REMARK  status: ('A' for Active; 'I' for Inactive)
REMARK    1  A    between atoms: C15_2  and  C16_23 
REMARK    2  A    between atoms: C04_13  and  C02_11 
REMARK    3  A    between atoms: N08_17  and  C07_16 
REMARK    4  A    between atoms: C09_18  and  N08_17 
ROOT
ATOM      1  C13 ZZL d           0.704  -8.025  -4.853  0.00  0.00     0.192 C 
ATOM      2  C15 ZZL d           1.894 -10.136  -4.677  0.00  0.00     0.079 C 
ATOM      3  C24 ZZL d           3.310  -9.672  -4.916  0.00  0.00     0.007 A 
ATOM      4  C26 ZZL d           5.491 -10.025  -5.842  0.00  0.00     0.035 A 
ATOM      5  C28 ZZL d           5.925  -8.805  -5.288  0.00  0.00     0.025 A 
ATOM      6  C09 ZZL d           2.962  -5.861  -2.025  0.00  0.00     0.727 A 
ATOM      7  N10 ZZL d           1.603  -5.635  -2.168  0.00  0.00    -0.074 NA
ATOM      8  C11 ZZL d           0.905  -6.351  -3.080  0.00  0.00     0.147 A 
ATOM      9  C12 ZZL d           1.558  -7.282  -3.818  0.00  0.00     0.010 A 
ATOM     10  N14 ZZL d           0.833  -9.448  -4.674  0.00  0.00    -0.283 NA
ATOM     11  C25 ZZL d           4.177 -10.464  -5.649  0.00  0.00     0.038 A 
ATOM     12 CL1  ZZL d           6.567 -11.029  -6.848  0.00  0.00    -0.084 Cl
ATOM     13  C29 ZZL d           5.046  -8.012  -4.542  0.00  0.00     0.016 A 
ATOM     14  C30 ZZL d           3.735  -8.459  -4.357  0.00  0.00     0.007 A 
ATOM     15  C31 ZZL d           2.936  -7.519  -3.661  0.00  0.00     0.096 A 
ATOM     16  N32 ZZL d           3.636  -6.814  -2.792  0.00  0.00    -0.061 NA
ENDROOT
BRANCH   6  17
ATOM     17  N08 ZZL d           3.715  -5.060  -1.101  0.00  0.00    -0.188 N 
ATOM     18  H   ZZL d           3.129  -4.382  -0.613  0.00  0.00     0.184 HD
BRANCH  17  19
ATOM     19  C07 ZZL d           5.095  -4.979  -0.695  0.00  0.00     0.049 A 
ATOM     20  C06 ZZL d           6.063  -5.587  -1.506  0.00  0.00     0.031 A 
ATOM     21  C05 ZZL d           7.415  -5.429  -1.199  0.00  0.00     0.020 A 
ATOM     22  C04 ZZL d           7.772  -4.668  -0.082  0.00  0.00     0.041 A 
ATOM     23  C34 ZZL d           6.805  -4.061   0.721  0.00  0.00     0.020 A 
ATOM     24  C33 ZZL d           5.452  -4.213   0.412  0.00  0.00     0.031 A 
BRANCH  22  25
ATOM     25  C02 ZZL d           9.238  -4.499   0.258  0.00  0.00     0.209 C 
ATOM     26  O01 ZZL d           9.692  -5.116   1.158  0.00  0.00    -0.644 OA
ATOM     27  O03 ZZL d          10.028  -3.623  -0.489  0.00  0.00    -0.644 OA
ENDBRANCH  22  25
ENDBRANCH  17  19
ENDBRANCH   6  17
BRANCH   2  28
ATOM     28  C16 ZZL d           1.880 -11.631  -4.392  0.00  0.00     0.070 A 
ATOM     29  C17 ZZL d           1.262 -12.512  -5.282  0.00  0.00     0.132 A 
ATOM     30  F18 ZZL d           0.747 -12.045  -6.452  0.00  0.00    -0.205 F 
ATOM     31  C19 ZZL d           1.204 -13.880  -4.994  0.00  0.00     0.043 A 
ATOM     32  C20 ZZL d           1.770 -14.379  -3.816  0.00  0.00     0.006 A 
ATOM     33  C21 ZZL d           2.394 -13.500  -2.923  0.00  0.00     0.043 A 
ATOM     34  C22 ZZL d           2.444 -12.129  -3.211  0.00  0.00     0.132 A 
ATOM     35  F23 ZZL d           3.079 -11.281  -2.353  0.00  0.00    -0.205 F 
ENDBRANCH   2  28
TORSDOF 4
ENDMDL
MODEL 4
REMARK VINA RESULT:     -10.4      5.444      9.206
REMARK  4 active torsions:
REMARK  status: ('A' for Active; 'I' for Inactive)
REMARK    1  A    between atoms: C15_2  and  C16_23 
REMARK    2  A    between atoms: C04_13  and  C02_11 
REMARK    3  A    between atoms: N08_17  and  C07_16 
REMARK    4  A    between atoms: C09_18  and  N08_17 
ROOT
ATOM      1  C13 ZZL d           6.280  -9.818  -4.795  0.00  0.00     0.192 C 
ATOM      2  C15 ZZL d           4.398  -8.859  -3.594  0.00  0.00     0.079 C 
ATOM      3  C24 ZZL d           3.355  -9.924  -3.825  0.00  0.00     0.007 A 
ATOM      4  C26 ZZL d           1.081 -10.560  -4.232  0.00  0.00     0.035 A 
ATOM      5  C28 ZZL d           1.454 -11.919  -4.196  0.00  0.00     0.025 A 
ATOM      6  C09 ZZL d           6.314 -13.579  -2.888  0.00  0.00     0.727 A 
ATOM      7  N10 ZZL d           7.496 -12.975  -3.283  0.00  0.00    -0.074 NA
ATOM      8  C11 ZZL d           7.452 -11.765  -3.886  0.00  0.00     0.147 A 
ATOM      9  C12 ZZL d           6.247 -11.171  -4.072  0.00  0.00     0.010 A 
ATOM     10  N14 ZZL d           5.590  -8.823  -4.016  0.00  0.00    -0.283 NA
ATOM     11  C25 ZZL d           2.037  -9.558  -4.039  0.00  0.00     0.038 A 
ATOM     12 CL1  ZZL d          -0.595 -10.061  -4.574  0.00  0.00    -0.084 Cl
ATOM     13  C29 ZZL d           2.786 -12.283  -3.973  0.00  0.00     0.016 A 
ATOM     14  C30 ZZL d           3.733 -11.273  -3.783  0.00  0.00     0.007 A 
ATOM     15  C31 ZZL d           5.049 -11.781  -3.658  0.00  0.00     0.096 A 
ATOM     16  N32 ZZL d           5.073 -12.972  -3.087  0.00  0.00    -0.061 NA
ENDROOT
BRANCH   6  17
ATOM     17  N08 ZZL d           6.355 -14.890  -2.302  0.00  0.00    -0.188 N 
ATOM     18  H   ZZL d           7.020 -14.946  -1.530  0.00  0.00     0.184 HD
BRANCH  17  19
ATOM     19  C07 ZZL d           5.688 -16.145  -2.539  0.00  0.00     0.049 A 
ATOM     20  C06 ZZL d           4.454 -16.126  -3.203  0.00  0.00     0.031 A 
ATOM     21  C05 ZZL d           3.839 -17.331  -3.546  0.00  0.00     0.020 A 
ATOM     22  C04 ZZL d           4.471 -18.533  -3.213  0.00  0.00     0.041 A 
ATOM     23  C34 ZZL d           5.702 -18.547  -2.555  0.00  0.00     0.020 A 
ATOM     24  C33 ZZL d           6.321 -17.343  -2.217  0.00  0.00     0.031 A 
BRANCH  22  25
ATOM     25  C02 ZZL d           3.804 -19.843  -3.578  0.00  0.00     0.209 C 
ATOM     26  O01 ZZL d           2.764 -20.113  -3.087  0.00  0.00    -0.644 OA
ATOM     27  O03 ZZL d           4.422 -20.709  -4.484  0.00  0.00    -0.644 OA
ENDBRANCH  22  25
ENDBRANCH  17  19
ENDBRANCH   6  17
BRANCH   2  28
ATOM     28  C16 ZZL d           3.830  -7.760  -2.707  0.00  0.00     0.070 A 
ATOM     29  C17 ZZL d           4.071  -7.769  -1.331  0.00  0.00     0.132 A 
ATOM     30  F18 ZZL d           4.889  -8.714  -0.792  0.00  0.00    -0.205 F 
ATOM     31  C19 ZZL d           3.505  -6.788  -0.510  0.00  0.00     0.043 A 
ATOM     32  C20 ZZL d           2.699  -5.786  -1.059  0.00  0.00     0.006 A 
ATOM     33  C21 ZZL d           2.458  -5.770  -2.437  0.00  0.00     0.043 A 
ATOM     34  C22 ZZL d           3.020  -6.759  -3.257  0.00  0.00     0.132 A 
ATOM     35  F23 ZZL d           2.808  -6.722  -4.603  0.00  0.00    -0.205 F 
ENDBRANCH   2  28
TORSDOF 4
ENDMDL
MODEL 5
REMARK VINA RESULT:     -10.1      1.563      2.112
REMARK  4 active torsions:
REMARK  status: ('A' for Active; 'I' for Inactive)
REMARK    1  A    between atoms: C15_2  and  C16_23 
REMARK    2  A    between atoms: C04_13  and  C02_11 
REMARK    3  A    between atoms: N08_17  and  C07_16 
REMARK    4  A    between atoms: C09_18  and  N08_17 
ROOT
ATOM      1  C13 ZZL d           1.482  -7.687  -3.625  0.00  0.00     0.192 C 
ATOM      2  C15 ZZL d           2.357  -9.938  -3.893  0.00  0.00     0.079 C 
ATOM      3  C24 ZZL d           3.642  -9.646  -4.627  0.00  0.00     0.007 A 
ATOM      4  C26 ZZL d           5.276 -10.226  -6.281  0.00  0.00     0.035 A 
ATOM      5  C28 ZZL d           6.042  -9.100  -5.920  0.00  0.00     0.025 A 
ATOM      6  C09 ZZL d           4.876  -5.971  -1.805  0.00  0.00     0.727 A 
ATOM      7  N10 ZZL d           3.601  -5.567  -1.445  0.00  0.00    -0.074 NA
ATOM      8  C11 ZZL d           2.532  -6.143  -2.043  0.00  0.00     0.147 A 
ATOM      9  C12 ZZL d           2.743  -7.111  -2.968  0.00  0.00     0.010 A 
ATOM     10  N14 ZZL d           1.472  -9.122  -3.505  0.00  0.00    -0.283 NA
ATOM     11  C25 ZZL d           4.072 -10.503  -5.625  0.00  0.00     0.038 A 
ATOM     12 CL1  ZZL d           5.772 -11.307  -7.609  0.00  0.00    -0.084 Cl
ATOM     13  C29 ZZL d           5.606  -8.240  -4.907  0.00  0.00     0.016 A 
ATOM     14  C30 ZZL d           4.400  -8.526  -4.259  0.00  0.00     0.007 A 
ATOM     15  C31 ZZL d           4.040  -7.528  -3.321  0.00  0.00     0.096 A 
ATOM     16  N32 ZZL d           5.094  -6.962  -2.764  0.00  0.00    -0.061 NA
ENDROOT
BRANCH   6  17
ATOM     17  N08 ZZL d           6.012  -5.319  -1.215  0.00  0.00    -0.188 N 
ATOM     18  H   ZZL d           6.792  -5.240  -1.868  0.00  0.00     0.184 HD
BRANCH  17  19
ATOM     19  C07 ZZL d           6.318  -4.748   0.072  0.00  0.00     0.049 A 
ATOM     20  C06 ZZL d           7.505  -5.139   0.706  0.00  0.00     0.031 A 
ATOM     21  C05 ZZL d           7.883  -4.521   1.899  0.00  0.00     0.020 A 
ATOM     22  C04 ZZL d           7.064  -3.524   2.435  0.00  0.00     0.041 A 
ATOM     23  C34 ZZL d           5.885  -3.134   1.798  0.00  0.00     0.020 A 
ATOM     24  C33 ZZL d           5.507  -3.748   0.602  0.00  0.00     0.031 A 
BRANCH  22  25
ATOM     25  C02 ZZL d           7.468  -2.854   3.732  0.00  0.00     0.209 C 
ATOM     26  O01 ZZL d           7.684  -3.525   4.680  0.00  0.00    -0.644 OA
ATOM     27  O03 ZZL d           7.579  -1.463   3.791  0.00  0.00    -0.644 OA
ENDBRANCH  22  25
ENDBRANCH  17  19
ENDBRANCH   6  17
BRANCH   2  28
ATOM     28  C16 ZZL d           2.242 -11.432  -3.623  0.00  0.00     0.070 A 
ATOM     29  C17 ZZL d           2.953 -12.014  -2.570  0.00  0.00     0.132 A 
ATOM     30  F18 ZZL d           3.683 -11.232  -1.729  0.00  0.00    -0.205 F 
ATOM     31  C19 ZZL d           2.888 -13.395  -2.355  0.00  0.00     0.043 A 
ATOM     32  C20 ZZL d           2.106 -14.204  -3.186  0.00  0.00     0.006 A 
ATOM     33  C21 ZZL d           1.388 -13.624  -4.238  0.00  0.00     0.043 A 
ATOM     34  C22 ZZL d           1.462 -12.241  -4.456  0.00  0.00     0.132 A 
ATOM     35  F23 ZZL d           0.737 -11.676  -5.464  0.00  0.00    -0.205 F 
ENDBRANCH   2  28
TORSDOF 4
ENDMDL
MODEL 6
REMARK VINA RESULT:      -8.7      5.693     10.390
REMARK  4 active torsions:
REMARK  status: ('A' for Active; 'I' for Inactive)
REMARK    1  A    between atoms: C15_2  and  C16_23 
REMARK    2  A    between atoms: C04_13  and  C02_11 
REMARK    3  A    between atoms: N08_17  and  C07_16 
REMARK    4  A    between atoms: C09_18  and  N08_17 
ROOT
ATOM      1  C13 ZZL d           9.890  -5.405  -0.218  0.00  0.00     0.192 C 
ATOM      2  C15 ZZL d           9.913  -5.159   2.199  0.00  0.00     0.079 C 
ATOM      3  C24 ZZL d           9.061  -3.924   2.356  0.00  0.00     0.007 A 
ATOM      4  C26 ZZL d           8.570  -1.858   3.466  0.00  0.00     0.035 A 
ATOM      5  C28 ZZL d           7.436  -1.688   2.649  0.00  0.00     0.025 A 
ATOM      6  C09 ZZL d           5.708  -5.366  -0.753  0.00  0.00     0.727 A 
ATOM      7  N10 ZZL d           6.516  -6.150  -1.559  0.00  0.00    -0.074 NA
ATOM      8  C11 ZZL d           7.855  -6.146  -1.356  0.00  0.00     0.147 A 
ATOM      9  C12 ZZL d           8.363  -5.382  -0.358  0.00  0.00     0.010 A 
ATOM     10  N14 ZZL d          10.259  -5.743   1.132  0.00  0.00    -0.283 NA
ATOM     11  C25 ZZL d           9.384  -2.988   3.323  0.00  0.00     0.038 A 
ATOM     12 CL1  ZZL d           9.046  -0.633   4.671  0.00  0.00    -0.084 Cl
ATOM     13  C29 ZZL d           7.111  -2.641   1.678  0.00  0.00     0.016 A 
ATOM     14  C30 ZZL d           7.932  -3.764   1.542  0.00  0.00     0.007 A 
ATOM     15  C31 ZZL d           7.536  -4.597   0.466  0.00  0.00     0.096 A 
ATOM     16  N32 ZZL d           6.231  -4.573   0.269  0.00  0.00    -0.061 NA
ENDROOT
BRANCH   6  17
ATOM     17  N08 ZZL d           4.294  -5.323  -1.005  0.00  0.00    -0.188 N 
ATOM     18  H   ZZL d           3.821  -4.629  -0.427  0.00  0.00     0.184 HD
BRANCH  17  19
ATOM     19  C07 ZZL d           3.382  -6.020  -1.876  0.00  0.00     0.049 A 
ATOM     20  C06 ZZL d           2.008  -5.797  -1.714  0.00  0.00     0.031 A 
ATOM     21  C05 ZZL d           1.108  -6.371  -2.613  0.00  0.00     0.020 A 
ATOM     22  C04 ZZL d           1.601  -7.159  -3.656  0.00  0.00     0.041 A 
ATOM     23  C34 ZZL d           2.971  -7.375  -3.817  0.00  0.00     0.020 A 
ATOM     24  C33 ZZL d           3.873  -6.798  -2.921  0.00  0.00     0.031 A 
BRANCH  22  25
ATOM     25  C02 ZZL d           0.628  -7.787  -4.631  0.00  0.00     0.209 C 
ATOM     26  O01 ZZL d          -0.507  -7.460  -4.598  0.00  0.00    -0.644 OA
ATOM     27  O03 ZZL d           1.079  -8.738  -5.550  0.00  0.00    -0.644 OA
ENDBRANCH  22  25
ENDBRANCH  17  19
ENDBRANCH   6  17
BRANCH   2  28
ATOM     28  C16 ZZL d          10.322  -5.685   3.568  0.00  0.00     0.070 A 
ATOM     29  C17 ZZL d          11.650  -5.593   3.990  0.00  0.00     0.132 A 
ATOM     30  F18 ZZL d          12.566  -4.953   3.214  0.00  0.00    -0.205 F 
ATOM     31  C19 ZZL d          12.034  -6.123   5.227  0.00  0.00     0.043 A 
ATOM     32  C20 ZZL d          11.092  -6.744   6.053  0.00  0.00     0.006 A 
ATOM     33  C21 ZZL d           9.760  -6.835   5.636  0.00  0.00     0.043 A 
ATOM     34  C22 ZZL d           9.379  -6.309   4.394  0.00  0.00     0.132 A 
ATOM     35  F23 ZZL d           8.073  -6.373   4.005  0.00  0.00    -0.205 F 
ENDBRANCH   2  28
TORSDOF 4
ENDMDL
