MODEL 1
REMARK VINA RESULT:     -13.6      0.000      0.000
REMARK  2 active torsions:
REMARK  status: ('A' for Active; 'I' for Inactive)
REMARK    1  A    between atoms: C2_4  and  C8_8 
REMARK    2  A    between atoms: C17_18  and  O20_19 
ROOT
ATOM      1  C8  GYN d           5.403  25.147  -8.130  0.00  0.00    -0.048 C 
ATOM      2  C13 GYN d           4.443  25.890  -7.542  0.00  0.00    -0.070 C 
ATOM      3  C14 GYN d           3.727  26.955  -8.346  0.00  0.00     0.044 C 
ATOM      4  C12 GYN d           4.040  25.731  -6.091  0.00  0.00     0.051 C 
ATOM      5  C27 GYN d           5.072  24.934  -5.280  0.00  0.00     0.011 C 
ATOM      6  C10 GYN d           5.452  23.690  -6.085  0.00  0.00     0.021 C 
ATOM      7  C9  GYN d           6.048  23.962  -7.457  0.00  0.00     0.038 C 
ATOM      8  C15 GYN d           3.813  27.106  -5.481  0.00  0.00    -0.012 C 
ATOM      9  C16 GYN d           2.633  27.610  -5.057  0.00  0.00    -0.059 C 
ATOM     10  C19 GYN d           1.333  26.848  -5.150  0.00  0.00     0.046 C 
ATOM     11  C17 GYN d           2.639  29.008  -4.486  0.00  0.00     0.146 C 
ATOM     12  C18 GYN d           2.031  29.037  -3.088  0.00  0.00     0.039 C 
ATOM     13  C21 GYN d           3.030  28.777  -1.976  0.00  0.00     0.035 C 
ATOM     14  C43 GYN d           2.786  27.447  -1.278  0.00  0.00     0.122 C 
ATOM     15  C47 GYN d           3.381  27.368   0.124  0.00  0.00     0.039 C 
ATOM     16  C48 GYN d           2.445  26.449   0.891  0.00  0.00     0.017 C 
ATOM     17  C49 GYN d           1.826  27.200   2.071  0.00  0.00     0.013 C 
ATOM     18  O43 GYN d           1.410  27.074  -1.111  0.00  0.00    -0.376 OA
ATOM     19  C37 GYN d           1.370  26.038  -0.109  0.00  0.00     0.154 C 
ATOM     20  C36 GYN d           1.646  24.662  -0.678  0.00  0.00    -0.059 C 
ATOM     21  C38 GYN d           1.279  23.436   0.125  0.00  0.00     0.046 C 
ATOM     22  C35 GYN d           2.198  24.555  -1.905  0.00  0.00    -0.021 C 
ATOM     23  C34 GYN d           2.554  23.276  -2.642  0.00  0.00     0.033 C 
ATOM     24  C33 GYN d           3.119  23.602  -4.033  0.00  0.00     0.059 C 
ATOM     25  C32 GYN d           4.433  24.382  -4.009  0.00  0.00     0.016 C 
ATOM     26  N31 GYN d           5.028  24.547  -2.898  0.00  0.00    -0.298 NA
ATOM     27  C30 GYN d           6.412  24.904  -2.623  0.00  0.00     0.148 C 
ATOM     28  C46 GYN d           6.708  26.074  -3.550  0.00  0.00     0.023 C 
ATOM     29  C28 GYN d           6.322  25.805  -5.002  0.00  0.00     0.018 C 
ENDROOT
BRANCH   1  30
ATOM     30  C2  GYN d           5.906  25.516  -9.498  0.00  0.00     0.162 C 
ATOM     31  O1  GYN d           7.052  26.359  -9.371  0.00  0.00    -0.311 OA
ATOM     32  C5  GYN d           8.007  25.882 -10.345  0.00  0.00     0.263 C 
ATOM     33  O6  GYN d           9.086  26.416 -10.509  0.00  0.00    -0.265 OA
ATOM     34  C4  GYN d           7.543  24.707 -11.127  0.00  0.00     0.084 C 
ATOM     35  C3  GYN d           6.303  24.297 -10.342  0.00  0.00     0.051 C 
ATOM     36  C7  GYN d           8.617  23.635 -11.207  0.00  0.00     0.020 C 
ENDBRANCH   1  30
BRANCH  11  37
ATOM     37  O20 GYN d           1.848  29.844  -5.343  0.00  0.00    -0.391 OA
ATOM     38  H   GYN d           2.425  30.323  -5.942  0.00  0.00     0.210 HD
ENDBRANCH  11  37
TORSDOF 2
ENDMDL
