MODEL 1
REMARK VINA RESULT:      -5.7      0.000      0.000
REMARK  4 active torsions:
REMARK  status: ('A' for Active; 'I' for Inactive)
REMARK    1  A    between atoms: C4_2  and  C2_3 
REMARK       I    between atoms: C4_2  and  N_7 
REMARK    2  A    between atoms: C2_3  and  C1_4 
REMARK    3  A    between atoms: C1_4  and  S_5 
REMARK    4  A    between atoms: C8_8  and  C9_9 
ROOT
ATOM      1  O1  X8Z d          28.490   7.968 -46.323  0.00  0.00    -0.273 OA
ATOM      2  C4  X8Z d          28.982   8.016 -45.152  0.00  0.00     0.225 C 
ATOM      3  N   X8Z d          28.693   9.070 -44.357  0.00  0.00    -0.337 N 
ATOM      4  C8  X8Z d          27.819  10.211 -44.819  0.00  0.00     0.188 C 
ATOM      5  C5  X8Z d          29.164   9.331 -42.946  0.00  0.00     0.127 C 
ATOM      6  C6  X8Z d          28.608  10.652 -42.557  0.00  0.00     0.022 C 
ATOM      7  C7  X8Z d          27.650  11.104 -43.621  0.00  0.00     0.038 C 
ENDROOT
BRANCH   2   8
ATOM      8  C2  X8Z d          29.899   6.880 -44.690  0.00  0.00     0.083 C 
ATOM      9  C3  X8Z d          31.133   6.885 -45.607  0.00  0.00     0.020 C 
BRANCH   8  10
ATOM     10  C1  X8Z d          29.109   5.568 -44.753  0.00  0.00     0.084 C 
BRANCH  10  11
ATOM     11  S   X8Z d          27.839   5.401 -43.498  0.00  0.00    -0.181 SA
ATOM     12  H   X8Z d          28.132   4.371 -42.707  0.00  0.00     0.101 HD
ENDBRANCH  10  11
ENDBRANCH   8  10
ENDBRANCH   2   8
BRANCH   4  13
ATOM     13  C9  X8Z d          28.486  10.977 -45.985  0.00  0.00     0.196 C 
ATOM     14  O3  X8Z d          29.684  11.171 -46.031  0.00  0.00    -0.646 OA
ATOM     15  O2  X8Z d          27.705  11.403 -46.914  0.00  0.00    -0.646 OA
ENDBRANCH   4  13
TORSDOF 4
ENDMDL
MODEL 2
REMARK VINA RESULT:      -5.5      3.533      5.713
REMARK  4 active torsions:
REMARK  status: ('A' for Active; 'I' for Inactive)
REMARK    1  A    between atoms: C4_2  and  C2_3 
REMARK       I    between atoms: C4_2  and  N_7 
REMARK    2  A    between atoms: C2_3  and  C1_4 
REMARK    3  A    between atoms: C1_4  and  S_5 
REMARK    4  A    between atoms: C8_8  and  C9_9 
ROOT
ATOM      1  O1  X8Z d          30.800   7.697 -42.213  0.00  0.00    -0.273 OA
ATOM      2  C4  X8Z d          29.921   7.445 -43.096  0.00  0.00     0.225 C 
ATOM      3  N   X8Z d          29.538   6.165 -43.299  0.00  0.00    -0.337 N 
ATOM      4  C8  X8Z d          30.134   5.013 -42.527  0.00  0.00     0.188 C 
ATOM      5  C5  X8Z d          28.522   5.641 -44.286  0.00  0.00     0.127 C 
ATOM      6  C6  X8Z d          28.524   4.163 -44.144  0.00  0.00     0.022 C 
ATOM      7  C7  X8Z d          29.368   3.793 -42.959  0.00  0.00     0.038 C 
ENDROOT
BRANCH   2   8
ATOM      8  C2  X8Z d          29.339   8.605 -43.909  0.00  0.00     0.083 C 
ATOM      9  C3  X8Z d          30.292   8.863 -45.087  0.00  0.00     0.020 C 
BRANCH   8  10
ATOM     10  C1  X8Z d          29.189   9.815 -42.981  0.00  0.00     0.084 C 
BRANCH  10  11
ATOM     11  S   X8Z d          28.442  11.255 -43.747  0.00  0.00    -0.181 SA
ATOM     12  H   X8Z d          27.821  11.978 -42.818  0.00  0.00     0.101 HD
ENDBRANCH  10  11
ENDBRANCH   8  10
ENDBRANCH   2   8
BRANCH   4  13
ATOM     13  C9  X8Z d          31.639   4.857 -42.847  0.00  0.00     0.196 C 
ATOM     14  O3  X8Z d          32.051   4.743 -43.984  0.00  0.00    -0.646 OA
ATOM     15  O2  X8Z d          32.443   4.856 -41.843  0.00  0.00    -0.646 OA
ENDBRANCH   4  13
TORSDOF 4
ENDMDL
MODEL 3
REMARK VINA RESULT:      -5.5      2.397      3.041
REMARK  4 active torsions:
REMARK  status: ('A' for Active; 'I' for Inactive)
REMARK    1  A    between atoms: C4_2  and  C2_3 
REMARK       I    between atoms: C4_2  and  N_7 
REMARK    2  A    between atoms: C2_3  and  C1_4 
REMARK    3  A    between atoms: C1_4  and  S_5 
REMARK    4  A    between atoms: C8_8  and  C9_9 
ROOT
ATOM      1  O1  X8Z d          29.795   8.838 -43.094  0.00  0.00    -0.273 OA
ATOM      2  C4  X8Z d          29.683   9.150 -44.322  0.00  0.00     0.225 C 
ATOM      3  N   X8Z d          29.087  10.316 -44.655  0.00  0.00    -0.337 N 
ATOM      4  C8  X8Z d          28.525  11.258 -43.617  0.00  0.00     0.188 C 
ATOM      5  C5  X8Z d          28.848  10.880 -46.035  0.00  0.00     0.127 C 
ATOM      6  C6  X8Z d          28.105  12.152 -45.844  0.00  0.00     0.022 C 
ATOM      7  C7  X8Z d          28.063  12.471 -44.378  0.00  0.00     0.038 C 
ENDROOT
BRANCH   2   8
ATOM      8  C2  X8Z d          30.218   8.181 -45.380  0.00  0.00     0.083 C 
ATOM      9  C3  X8Z d          29.156   7.089 -45.582  0.00  0.00     0.020 C 
BRANCH   8  10
ATOM     10  C1  X8Z d          31.563   7.629 -44.892  0.00  0.00     0.084 C 
BRANCH  10  11
ATOM     11  S   X8Z d          31.505   5.933 -44.310  0.00  0.00    -0.181 SA
ATOM     12  H   X8Z d          30.389   5.744 -43.610  0.00  0.00     0.101 HD
ENDBRANCH  10  11
ENDBRANCH   8  10
ENDBRANCH   2   8
BRANCH   4  13
ATOM     13  C9  X8Z d          27.346  10.603 -42.861  0.00  0.00     0.196 C 
ATOM     14  O3  X8Z d          27.404  10.335 -41.678  0.00  0.00    -0.646 OA
ATOM     15  O2  X8Z d          26.288  10.355 -43.550  0.00  0.00    -0.646 OA
ENDBRANCH   4  13
TORSDOF 4
ENDMDL
MODEL 4
REMARK VINA RESULT:      -5.4      3.413      4.814
REMARK  4 active torsions:
REMARK  status: ('A' for Active; 'I' for Inactive)
REMARK    1  A    between atoms: C4_2  and  C2_3 
REMARK       I    between atoms: C4_2  and  N_7 
REMARK    2  A    between atoms: C2_3  and  C1_4 
REMARK    3  A    between atoms: C1_4  and  S_5 
REMARK    4  A    between atoms: C8_8  and  C9_9 
ROOT
ATOM      1  O1  X8Z d          29.299   4.939 -42.462  0.00  0.00    -0.273 OA
ATOM      2  C4  X8Z d          28.592   5.900 -42.902  0.00  0.00     0.225 C 
ATOM      3  N   X8Z d          28.904   6.457 -44.093  0.00  0.00    -0.337 N 
ATOM      4  C8  X8Z d          30.082   5.992 -44.916  0.00  0.00     0.188 C 
ATOM      5  C5  X8Z d          28.211   7.597 -44.800  0.00  0.00     0.127 C 
ATOM      6  C6  X8Z d          28.987   7.855 -46.039  0.00  0.00     0.022 C 
ATOM      7  C7  X8Z d          30.014   6.772 -46.200  0.00  0.00     0.038 C 
ENDROOT
BRANCH   2   8
ATOM      8  C2  X8Z d          27.419   6.400 -42.055  0.00  0.00     0.083 C 
ATOM      9  C3  X8Z d          27.956   7.508 -41.135  0.00  0.00     0.020 C 
BRANCH   8  10
ATOM     10  C1  X8Z d          26.838   5.209 -41.285  0.00  0.00     0.084 C 
BRANCH  10  11
ATOM     11  S   X8Z d          27.024   5.310 -39.504  0.00  0.00    -0.181 SA
ATOM     12  H   X8Z d          25.966   4.756 -38.917  0.00  0.00     0.101 HD
ENDBRANCH  10  11
ENDBRANCH   8  10
ENDBRANCH   2   8
BRANCH   4  13
ATOM     13  C9  X8Z d          31.412   6.267 -44.177  0.00  0.00     0.196 C 
ATOM     14  O3  X8Z d          31.655   7.339 -43.660  0.00  0.00    -0.646 OA
ATOM     15  O2  X8Z d          32.256   5.298 -44.133  0.00  0.00    -0.646 OA
ENDBRANCH   4  13
TORSDOF 4
ENDMDL
MODEL 5
REMARK VINA RESULT:      -5.3      3.131      4.522
REMARK  4 active torsions:
REMARK  status: ('A' for Active; 'I' for Inactive)
REMARK    1  A    between atoms: C4_2  and  C2_3 
REMARK       I    between atoms: C4_2  and  N_7 
REMARK    2  A    between atoms: C2_3  and  C1_4 
REMARK    3  A    between atoms: C1_4  and  S_5 
REMARK    4  A    between atoms: C8_8  and  C9_9 
ROOT
ATOM      1  O1  X8Z d          30.609   7.040 -41.509  0.00  0.00    -0.273 OA
ATOM      2  C4  X8Z d          29.700   6.657 -42.311  0.00  0.00     0.225 C 
ATOM      3  N   X8Z d          29.965   6.614 -43.636  0.00  0.00    -0.337 N 
ATOM      4  C8  X8Z d          31.302   7.027 -44.204  0.00  0.00     0.188 C 
ATOM      5  C5  X8Z d          29.045   6.197 -44.758  0.00  0.00     0.127 C 
ATOM      6  C6  X8Z d          29.806   6.391 -46.018  0.00  0.00     0.022 C 
ATOM      7  C7  X8Z d          31.230   6.723 -45.675  0.00  0.00     0.038 C 
ENDROOT
BRANCH   2   8
ATOM      8  C2  X8Z d          28.330   6.272 -41.745  0.00  0.00     0.083 C 
ATOM      9  C3  X8Z d          27.399   7.480 -41.937  0.00  0.00     0.020 C 
BRANCH   8  10
ATOM     10  C1  X8Z d          28.510   5.879 -40.275  0.00  0.00     0.084 C 
BRANCH  10  11
ATOM     11  S   X8Z d          27.016   5.304 -39.468  0.00  0.00    -0.181 SA
ATOM     12  H   X8Z d          25.959   5.645 -40.201  0.00  0.00     0.101 HD
ENDBRANCH  10  11
ENDBRANCH   8  10
ENDBRANCH   2   8
BRANCH   4  13
ATOM     13  C9  X8Z d          31.559   8.533 -43.966  0.00  0.00     0.196 C 
ATOM     14  O3  X8Z d          32.527   8.936 -43.352  0.00  0.00    -0.646 OA
ATOM     15  O2  X8Z d          30.692   9.348 -44.455  0.00  0.00    -0.646 OA
ENDBRANCH   4  13
TORSDOF 4
ENDMDL
MODEL 6
REMARK VINA RESULT:      -5.3      1.859      2.401
REMARK  4 active torsions:
REMARK  status: ('A' for Active; 'I' for Inactive)
REMARK    1  A    between atoms: C4_2  and  C2_3 
REMARK       I    between atoms: C4_2  and  N_7 
REMARK    2  A    between atoms: C2_3  and  C1_4 
REMARK    3  A    between atoms: C1_4  and  S_5 
REMARK    4  A    between atoms: C8_8  and  C9_9 
ROOT
ATOM      1  O1  X8Z d          30.402   9.467 -44.958  0.00  0.00    -0.273 OA
ATOM      2  C4  X8Z d          29.222   9.071 -44.700  0.00  0.00     0.225 C 
ATOM      3  N   X8Z d          28.172   9.732 -45.235  0.00  0.00    -0.337 N 
ATOM      4  C8  X8Z d          28.349  10.945 -46.116  0.00  0.00     0.188 C 
ATOM      5  C5  X8Z d          26.700   9.440 -45.063  0.00  0.00     0.127 C 
ATOM      6  C6  X8Z d          25.974  10.499 -45.810  0.00  0.00     0.022 C 
ATOM      7  C7  X8Z d          26.969  11.306 -46.593  0.00  0.00     0.038 C 
ENDROOT
BRANCH   2   8
ATOM      8  C2  X8Z d          29.034   7.863 -43.777  0.00  0.00     0.083 C 
ATOM      9  C3  X8Z d          30.253   7.806 -42.842  0.00  0.00     0.020 C 
BRANCH   8  10
ATOM     10  C1  X8Z d          28.887   6.610 -44.648  0.00  0.00     0.084 C 
BRANCH  10  11
ATOM     11  S   X8Z d          28.807   5.070 -43.732  0.00  0.00    -0.181 SA
ATOM     12  H   X8Z d          29.680   5.107 -42.729  0.00  0.00     0.101 HD
ENDBRANCH  10  11
ENDBRANCH   8  10
ENDBRANCH   2   8
BRANCH   4  13
ATOM     13  C9  X8Z d          28.978  12.114 -45.323  0.00  0.00     0.196 C 
ATOM     14  O3  X8Z d          28.562  12.456 -44.234  0.00  0.00    -0.646 OA
ATOM     15  O2  X8Z d          29.974  12.712 -45.874  0.00  0.00    -0.646 OA
ENDBRANCH   4  13
TORSDOF 4
ENDMDL
MODEL 7
REMARK VINA RESULT:      -5.3      2.652      3.379
REMARK  4 active torsions:
REMARK  status: ('A' for Active; 'I' for Inactive)
REMARK    1  A    between atoms: C4_2  and  C2_3 
REMARK       I    between atoms: C4_2  and  N_7 
REMARK    2  A    between atoms: C2_3  and  C1_4 
REMARK    3  A    between atoms: C1_4  and  S_5 
REMARK    4  A    between atoms: C8_8  and  C9_9 
ROOT
ATOM      1  O1  X8Z d          27.383   8.179 -41.776  0.00  0.00    -0.273 OA
ATOM      2  C4  X8Z d          27.957   7.563 -42.729  0.00  0.00     0.225 C 
ATOM      3  N   X8Z d          28.426   8.267 -43.783  0.00  0.00    -0.337 N 
ATOM      4  C8  X8Z d          28.272   9.766 -43.882  0.00  0.00     0.188 C 
ATOM      5  C5  X8Z d          29.132   7.748 -45.012  0.00  0.00     0.127 C 
ATOM      6  C6  X8Z d          29.377   8.925 -45.883  0.00  0.00     0.022 C 
ATOM      7  C7  X8Z d          29.017  10.170 -45.125  0.00  0.00     0.038 C 
ENDROOT
BRANCH   2   8
ATOM      8  C2  X8Z d          28.084   6.039 -42.651  0.00  0.00     0.083 C 
ATOM      9  C3  X8Z d          26.662   5.465 -42.550  0.00  0.00     0.020 C 
BRANCH   8  10
ATOM     10  C1  X8Z d          28.960   5.690 -41.443  0.00  0.00     0.084 C 
BRANCH  10  11
ATOM     11  S   X8Z d          30.650   5.246 -41.850  0.00  0.00    -0.181 SA
ATOM     12  H   X8Z d          30.926   4.047 -41.342  0.00  0.00     0.101 HD
ENDBRANCH  10  11
ENDBRANCH   8  10
ENDBRANCH   2   8
BRANCH   4  13
ATOM     13  C9  X8Z d          26.780  10.160 -43.986  0.00  0.00     0.196 C 
ATOM     14  O3  X8Z d          26.062   9.750 -44.876  0.00  0.00    -0.646 OA
ATOM     15  O2  X8Z d          26.329  10.948 -43.075  0.00  0.00    -0.646 OA
ENDBRANCH   4  13
TORSDOF 4
ENDMDL
MODEL 8
REMARK VINA RESULT:      -5.2      2.396      3.888
REMARK  4 active torsions:
REMARK  status: ('A' for Active; 'I' for Inactive)
REMARK    1  A    between atoms: C4_2  and  C2_3 
REMARK       I    between atoms: C4_2  and  N_7 
REMARK    2  A    between atoms: C2_3  and  C1_4 
REMARK    3  A    between atoms: C1_4  and  S_5 
REMARK    4  A    between atoms: C8_8  and  C9_9 
ROOT
ATOM      1  O1  X8Z d          27.906   8.521 -43.002  0.00  0.00    -0.273 OA
ATOM      2  C4  X8Z d          28.468   7.382 -42.939  0.00  0.00     0.225 C 
ATOM      3  N   X8Z d          29.594   7.160 -43.651  0.00  0.00    -0.337 N 
ATOM      4  C8  X8Z d          30.203   8.215 -44.544  0.00  0.00     0.188 C 
ATOM      5  C5  X8Z d          30.418   5.897 -43.726  0.00  0.00     0.127 C 
ATOM      6  C6  X8Z d          31.511   6.166 -44.694  0.00  0.00     0.022 C 
ATOM      7  C7  X8Z d          31.487   7.623 -45.056  0.00  0.00     0.038 C 
ENDROOT
BRANCH   2   8
ATOM      8  C2  X8Z d          27.835   6.295 -42.064  0.00  0.00     0.083 C 
ATOM      9  C3  X8Z d          26.663   5.694 -42.855  0.00  0.00     0.020 C 
BRANCH   8  10
ATOM     10  C1  X8Z d          27.401   6.935 -40.740  0.00  0.00     0.084 C 
BRANCH  10  11
ATOM     11  S   X8Z d          26.967   5.765 -39.452  0.00  0.00    -0.181 SA
ATOM     12  H   X8Z d          25.900   5.067 -39.831  0.00  0.00     0.101 HD
ENDBRANCH  10  11
ENDBRANCH   8  10
ENDBRANCH   2   8
BRANCH   4  13
ATOM     13  C9  X8Z d          29.253   8.560 -45.714  0.00  0.00     0.196 C 
ATOM     14  O3  X8Z d          28.643   7.706 -46.326  0.00  0.00    -0.646 OA
ATOM     15  O2  X8Z d          29.136   9.806 -46.012  0.00  0.00    -0.646 OA
ENDBRANCH   4  13
TORSDOF 4
ENDMDL
MODEL 9
REMARK VINA RESULT:      -5.1      2.877      4.314
REMARK  4 active torsions:
REMARK  status: ('A' for Active; 'I' for Inactive)
REMARK    1  A    between atoms: C4_2  and  C2_3 
REMARK       I    between atoms: C4_2  and  N_7 
REMARK    2  A    between atoms: C2_3  and  C1_4 
REMARK    3  A    between atoms: C1_4  and  S_5 
REMARK    4  A    between atoms: C8_8  and  C9_9 
ROOT
ATOM      1  O1  X8Z d          29.077   6.515 -41.841  0.00  0.00    -0.273 OA
ATOM      2  C4  X8Z d          28.793   6.226 -43.046  0.00  0.00     0.225 C 
ATOM      3  N   X8Z d          29.663   6.556 -44.026  0.00  0.00    -0.337 N 
ATOM      4  C8  X8Z d          30.957   7.281 -43.744  0.00  0.00     0.188 C 
ATOM      5  C5  X8Z d          29.532   6.314 -45.511  0.00  0.00     0.127 C 
ATOM      6  C6  X8Z d          30.729   6.924 -46.143  0.00  0.00     0.022 C 
ATOM      7  C7  X8Z d          31.679   7.353 -45.062  0.00  0.00     0.038 C 
ENDROOT
BRANCH   2   8
ATOM      8  C2  X8Z d          27.465   5.524 -43.344  0.00  0.00     0.083 C 
ATOM      9  C3  X8Z d          26.338   6.514 -43.010  0.00  0.00     0.020 C 
BRANCH   8  10
ATOM     10  C1  X8Z d          27.403   4.239 -42.510  0.00  0.00     0.084 C 
BRANCH  10  11
ATOM     11  S   X8Z d          27.598   2.727 -43.455  0.00  0.00    -0.181 SA
ATOM     12  H   X8Z d          27.450   2.993 -44.750  0.00  0.00     0.101 HD
ENDBRANCH  10  11
ENDBRANCH   8  10
ENDBRANCH   2   8
BRANCH   4  13
ATOM     13  C9  X8Z d          30.685   8.698 -43.190  0.00  0.00     0.196 C 
ATOM     14  O3  X8Z d          30.024   9.516 -43.799  0.00  0.00    -0.646 OA
ATOM     15  O2  X8Z d          31.193   8.974 -42.041  0.00  0.00    -0.646 OA
ENDBRANCH   4  13
TORSDOF 4
ENDMDL
MODEL 10
REMARK VINA RESULT:      -5.1      3.337      4.997
REMARK  4 active torsions:
REMARK  status: ('A' for Active; 'I' for Inactive)
REMARK    1  A    between atoms: C4_2  and  C2_3 
REMARK       I    between atoms: C4_2  and  N_7 
REMARK    2  A    between atoms: C2_3  and  C1_4 
REMARK    3  A    between atoms: C1_4  and  S_5 
REMARK    4  A    between atoms: C8_8  and  C9_9 
ROOT
ATOM      1  O1  X8Z d          26.502   9.643 -43.609  0.00  0.00    -0.273 OA
ATOM      2  C4  X8Z d          27.261   9.114 -44.481  0.00  0.00     0.225 C 
ATOM      3  N   X8Z d          27.666   7.836 -44.316  0.00  0.00    -0.337 N 
ATOM      4  C8  X8Z d          27.268   7.014 -43.113  0.00  0.00     0.188 C 
ATOM      5  C5  X8Z d          28.560   7.016 -45.216  0.00  0.00     0.127 C 
ATOM      6  C6  X8Z d          28.739   5.704 -44.546  0.00  0.00     0.022 C 
ATOM      7  C7  X8Z d          27.817   5.636 -43.363  0.00  0.00     0.038 C 
ENDROOT
BRANCH   2   8
ATOM      8  C2  X8Z d          27.698   9.954 -45.685  0.00  0.00     0.083 C 
ATOM      9  C3  X8Z d          29.040  10.611 -45.322  0.00  0.00     0.020 C 
BRANCH   8  10
ATOM     10  C1  X8Z d          26.593  10.972 -45.988  0.00  0.00     0.084 C 
BRANCH  10  11
ATOM     11  S   X8Z d          27.185  12.617 -46.392  0.00  0.00    -0.181 SA
ATOM     12  H   X8Z d          27.622  12.633 -47.649  0.00  0.00     0.101 HD
ENDBRANCH  10  11
ENDBRANCH   8  10
ENDBRANCH   2   8
BRANCH   4  13
ATOM     13  C9  X8Z d          27.859   7.614 -41.817  0.00  0.00     0.196 C 
ATOM     14  O3  X8Z d          27.179   7.829 -40.834  0.00  0.00    -0.646 OA
ATOM     15  O2  X8Z d          29.119   7.875 -41.827  0.00  0.00    -0.646 OA
ENDBRANCH   4  13
TORSDOF 4
ENDMDL
