MODEL 1
REMARK VINA RESULT:      -8.5      0.000      0.000
REMARK  13 active torsions:
REMARK  status: ('A' for Active; 'I' for Inactive)
REMARK    1  A    between atoms: CBC_6  and  CAS_7 
REMARK    2  A    between atoms: CAS_7  and  CBG_8 
REMARK    3  A    between atoms: CBG_8  and  NAW_9 
REMARK    4  A    between atoms: CBG_8  and  P1_21 
REMARK       I    between atoms: NAW_9  and  CBB_10 
REMARK    5  A    between atoms: CBB_10  and  CBF_12 
REMARK    6  A    between atoms: CBF_12  and  CAR_13 
REMARK    7  A    between atoms: CBF_12  and  NAU_17 
REMARK    8  A    between atoms: CAR_13  and  CAZ_14 
REMARK       I    between atoms: NAU_17  and  CAX_18 
REMARK    9  A    between atoms: P1_21  and  CAT_24 
REMARK   10  A    between atoms: CAT_24  and  CBD_25 
REMARK   11  A    between atoms: CBD_25  and  CBA_27 
REMARK       I    between atoms: CBA_27  and  N_29 
REMARK   12  A    between atoms: N_29  and  CA_30 
REMARK   13  A    between atoms: CA_30  and  C_32 
REMARK       I    between atoms: C_32  and  NAD_34 
ROOT
ATOM      1  CBG RX4 d          29.069  -9.079  43.449  0.00  0.00     0.180 C 
ENDROOT
BRANCH   1   2
ATOM      2  CAS RX4 d          28.927 -10.593  43.863  0.00  0.00     0.074 C 
BRANCH   2   3
ATOM      3  CBC RX4 d          27.929 -10.611  45.050  0.00  0.00    -0.056 A 
ATOM      4  CAP RX4 d          28.079 -11.680  45.970  0.00  0.00     0.007 A 
ATOM      5  CAN RX4 d          27.240 -11.870  47.059  0.00  0.00     0.001 A 
ATOM      6  CAM RX4 d          26.193 -10.926  47.159  0.00  0.00     0.000 A 
ATOM      7  CAO RX4 d          25.998  -9.869  46.240  0.00  0.00     0.001 A 
ATOM      8  CAQ RX4 d          26.877  -9.704  45.157  0.00  0.00     0.007 A 
ENDBRANCH   2   3
ENDBRANCH   1   2
BRANCH   1   9
ATOM      9  NAW RX4 d          28.974  -8.924  42.001  0.00  0.00    -0.345 N 
ATOM     10  CBB RX4 d          27.953  -8.209  41.520  0.00  0.00     0.241 C 
ATOM     11  OAI RX4 d          27.136  -7.634  42.261  0.00  0.00    -0.271 OA
ATOM     12  H   RX4 d          29.664  -9.346  41.378  0.00  0.00     0.163 HD
BRANCH  10  13
ATOM     13  CBF RX4 d          27.640  -8.258  40.015  0.00  0.00     0.186 C 
BRANCH  13  14
ATOM     14  CAR RX4 d          28.591  -9.143  39.275  0.00  0.00     0.147 C 
BRANCH  14  15
ATOM     15  CAZ RX4 d          27.910  -9.474  37.926  0.00  0.00     0.175 C 
ATOM     16  OAK RX4 d          28.614  -9.857  36.949  0.00  0.00    -0.648 OA
ATOM     17  OAG RX4 d          26.684  -9.398  37.914  0.00  0.00    -0.648 OA
ENDBRANCH  14  15
ENDBRANCH  13  14
BRANCH  13  18
ATOM     18  NAU RX4 d          27.709  -6.820  39.576  0.00  0.00    -0.348 N 
ATOM     19  CAX RX4 d          26.622  -6.115  39.211  0.00  0.00     0.214 C 
ATOM     20  CAA RX4 d          26.879  -4.626  38.838  0.00  0.00     0.117 C 
ATOM     21  OAE RX4 d          25.464  -6.594  39.157  0.00  0.00    -0.274 OA
ATOM     22  H   RX4 d          28.619  -6.360  39.553  0.00  0.00     0.163 HD
ENDBRANCH  13  18
ENDBRANCH  10  13
ENDBRANCH   1   9
BRANCH   1  23
ATOM     23  P1  RX4 d          30.667  -8.370  43.903  0.00  0.00     0.130 P 
ATOM     24  O4  RX4 d          30.898  -7.056  43.176  0.00  0.00    -0.666 OA
ATOM     25  O3  RX4 d          31.850  -9.182  43.426  0.00  0.00    -0.666 OA
BRANCH  23  26
ATOM     26  CAT RX4 d          30.652  -8.124  45.673  0.00  0.00     0.119 C 
BRANCH  26  27
ATOM     27  CBD RX4 d          30.633  -6.676  46.172  0.00  0.00     0.083 C 
ATOM     28  CAB RX4 d          31.666  -5.720  45.392  0.00  0.00     0.020 C 
BRANCH  27  29
ATOM     29  CBA RX4 d          29.219  -6.096  45.781  0.00  0.00     0.222 C 
ATOM     30  OAH RX4 d          28.184  -6.682  46.134  0.00  0.00    -0.273 OA
ATOM     31  N   RX4 d          29.199  -5.028  44.994  0.00  0.00    -0.348 N 
ATOM     32  H   RX4 d          30.066  -4.582  44.699  0.00  0.00     0.163 HD
BRANCH  31  33
ATOM     33  CA  RX4 d          27.860  -4.491  44.547  0.00  0.00     0.172 C 
ATOM     34  CB  RX4 d          27.721  -3.024  44.977  0.00  0.00     0.042 C 
BRANCH  33  35
ATOM     35  C   RX4 d          27.886  -4.578  42.983  0.00  0.00     0.237 C 
ATOM     36  O   RX4 d          26.841  -4.259  42.322  0.00  0.00    -0.271 OA
ATOM     37  NAD RX4 d          29.013  -4.947  42.401  0.00  0.00    -0.368 N 
ATOM     38  H   RX4 d          29.073  -4.986  41.383  0.00  0.00     0.159 HD
ATOM     39  H   RX4 d          29.823  -5.194  42.969  0.00  0.00     0.159 HD
ENDBRANCH  33  35
ENDBRANCH  31  33
ENDBRANCH  27  29
ENDBRANCH  26  27
ENDBRANCH  23  26
ENDBRANCH   1  23
TORSDOF 13
ENDMDL
MODEL 2
REMARK VINA RESULT:      -8.5      2.338      6.867
REMARK  13 active torsions:
REMARK  status: ('A' for Active; 'I' for Inactive)
REMARK    1  A    between atoms: CBC_6  and  CAS_7 
REMARK    2  A    between atoms: CAS_7  and  CBG_8 
REMARK    3  A    between atoms: CBG_8  and  NAW_9 
REMARK    4  A    between atoms: CBG_8  and  P1_21 
REMARK       I    between atoms: NAW_9  and  CBB_10 
REMARK    5  A    between atoms: CBB_10  and  CBF_12 
REMARK    6  A    between atoms: CBF_12  and  CAR_13 
REMARK    7  A    between atoms: CBF_12  and  NAU_17 
REMARK    8  A    between atoms: CAR_13  and  CAZ_14 
REMARK       I    between atoms: NAU_17  and  CAX_18 
REMARK    9  A    between atoms: P1_21  and  CAT_24 
REMARK   10  A    between atoms: CAT_24  and  CBD_25 
REMARK   11  A    between atoms: CBD_25  and  CBA_27 
REMARK       I    between atoms: CBA_27  and  N_29 
REMARK   12  A    between atoms: N_29  and  CA_30 
REMARK   13  A    between atoms: CA_30  and  C_32 
REMARK       I    between atoms: C_32  and  NAD_34 
ROOT
ATOM      1  CBG RX4 d          30.120  -7.364  41.521  0.00  0.00     0.180 C 
ENDROOT
BRANCH   1   2
ATOM      2  CAS RX4 d          30.592  -5.868  41.680  0.00  0.00     0.074 C 
BRANCH   2   3
ATOM      3  CBC RX4 d          29.558  -5.200  42.622  0.00  0.00    -0.056 A 
ATOM      4  CAP RX4 d          28.197  -5.341  42.249  0.00  0.00     0.007 A 
ATOM      5  CAN RX4 d          27.151  -4.765  42.956  0.00  0.00     0.001 A 
ATOM      6  CAM RX4 d          27.555  -3.989  44.066  0.00  0.00     0.000 A 
ATOM      7  CAO RX4 d          28.905  -3.803  44.444  0.00  0.00     0.001 A 
ATOM      8  CAQ RX4 d          29.934  -4.414  43.709  0.00  0.00     0.007 A 
ENDBRANCH   2   3
ENDBRANCH   1   2
BRANCH   1   9
ATOM      9  NAW RX4 d          30.607  -8.184  42.625  0.00  0.00    -0.345 N 
ATOM     10  CBB RX4 d          29.700  -8.818  43.373  0.00  0.00     0.241 C 
ATOM     11  OAI RX4 d          28.482  -8.777  43.120  0.00  0.00    -0.271 OA
ATOM     12  H   RX4 d          31.605  -8.272  42.818  0.00  0.00     0.163 HD
BRANCH  10  13
ATOM     13  CBF RX4 d          30.130  -9.449  44.708  0.00  0.00     0.186 C 
BRANCH  13  14
ATOM     14  CAR RX4 d          29.532 -10.806  44.901  0.00  0.00     0.147 C 
BRANCH  14  15
ATOM     15  CAZ RX4 d          28.796 -10.761  46.261  0.00  0.00     0.175 C 
ATOM     16  OAK RX4 d          29.451 -10.916  47.331  0.00  0.00    -0.648 OA
ATOM     17  OAG RX4 d          27.595 -10.508  46.212  0.00  0.00    -0.648 OA
ENDBRANCH  14  15
ENDBRANCH  13  14
BRANCH  13  18
ATOM     18  NAU RX4 d          29.687  -8.455  45.748  0.00  0.00    -0.348 N 
ATOM     19  CAX RX4 d          30.411  -7.368  46.073  0.00  0.00     0.214 C 
ATOM     20  CAA RX4 d          29.769  -6.425  47.132  0.00  0.00     0.117 C 
ATOM     21  OAE RX4 d          31.534  -7.103  45.581  0.00  0.00    -0.274 OA
ATOM     22  H   RX4 d          28.800  -8.613  46.227  0.00  0.00     0.163 HD
ENDBRANCH  13  18
ENDBRANCH  10  13
ENDBRANCH   1   9
BRANCH   1  23
ATOM     23  P1  RX4 d          30.755  -8.149  40.023  0.00  0.00     0.130 P 
ATOM     24  O4  RX4 d          32.006  -8.956  40.329  0.00  0.00    -0.666 OA
ATOM     25  O3  RX4 d          31.282  -7.169  38.999  0.00  0.00    -0.666 OA
BRANCH  23  26
ATOM     26  CAT RX4 d          29.458  -9.200  39.387  0.00  0.00     0.119 C 
BRANCH  26  27
ATOM     27  CBD RX4 d          29.067  -9.007  37.918  0.00  0.00     0.083 C 
ATOM     28  CAB RX4 d          28.784 -10.391  37.146  0.00  0.00     0.020 C 
BRANCH  27  29
ATOM     29  CBA RX4 d          27.662  -8.291  37.929  0.00  0.00     0.222 C 
ATOM     30  OAH RX4 d          26.629  -8.936  37.691  0.00  0.00    -0.273 OA
ATOM     31  N   RX4 d          27.652  -6.976  38.107  0.00  0.00    -0.348 N 
ATOM     32  H   RX4 d          28.519  -6.467  38.275  0.00  0.00     0.163 HD
BRANCH  31  33
ATOM     33  CA  RX4 d          26.328  -6.253  38.054  0.00  0.00     0.172 C 
ATOM     34  CB  RX4 d          25.802  -6.031  39.479  0.00  0.00     0.042 C 
BRANCH  33  35
ATOM     35  C   RX4 d          26.643  -4.869  37.389  0.00  0.00     0.237 C 
ATOM     36  O   RX4 d          27.740  -4.279  37.666  0.00  0.00    -0.271 OA
ATOM     37  NAD RX4 d          25.767  -4.381  36.529  0.00  0.00    -0.368 N 
ATOM     38  H   RX4 d          25.956  -3.497  36.055  0.00  0.00     0.159 HD
ATOM     39  H   RX4 d          24.902  -4.887  36.338  0.00  0.00     0.159 HD
ENDBRANCH  33  35
ENDBRANCH  31  33
ENDBRANCH  27  29
ENDBRANCH  26  27
ENDBRANCH  23  26
ENDBRANCH   1  23
TORSDOF 13
ENDMDL
MODEL 3
REMARK VINA RESULT:      -8.5      2.232      6.798
REMARK  13 active torsions:
REMARK  status: ('A' for Active; 'I' for Inactive)
REMARK    1  A    between atoms: CBC_6  and  CAS_7 
REMARK    2  A    between atoms: CAS_7  and  CBG_8 
REMARK    3  A    between atoms: CBG_8  and  NAW_9 
REMARK    4  A    between atoms: CBG_8  and  P1_21 
REMARK       I    between atoms: NAW_9  and  CBB_10 
REMARK    5  A    between atoms: CBB_10  and  CBF_12 
REMARK    6  A    between atoms: CBF_12  and  CAR_13 
REMARK    7  A    between atoms: CBF_12  and  NAU_17 
REMARK    8  A    between atoms: CAR_13  and  CAZ_14 
REMARK       I    between atoms: NAU_17  and  CAX_18 
REMARK    9  A    between atoms: P1_21  and  CAT_24 
REMARK   10  A    between atoms: CAT_24  and  CBD_25 
REMARK   11  A    between atoms: CBD_25  and  CBA_27 
REMARK       I    between atoms: CBA_27  and  N_29 
REMARK   12  A    between atoms: N_29  and  CA_30 
REMARK   13  A    between atoms: CA_30  and  C_32 
REMARK       I    between atoms: C_32  and  NAD_34 
ROOT
ATOM      1  CBG RX4 d          28.504  -7.001  41.334  0.00  0.00     0.180 C 
ENDROOT
BRANCH   1   2
ATOM      2  CAS RX4 d          29.041  -6.233  40.066  0.00  0.00     0.074 C 
BRANCH   2   3
ATOM      3  CBC RX4 d          27.793  -5.935  39.197  0.00  0.00    -0.056 A 
ATOM      4  CAP RX4 d          28.016  -5.138  38.046  0.00  0.00     0.007 A 
ATOM      5  CAN RX4 d          27.000  -4.739  37.188  0.00  0.00     0.001 A 
ATOM      6  CAM RX4 d          25.709  -5.164  37.576  0.00  0.00     0.000 A 
ATOM      7  CAO RX4 d          25.451  -5.931  38.736  0.00  0.00     0.001 A 
ATOM      8  CAQ RX4 d          26.509  -6.325  39.571  0.00  0.00     0.007 A 
ENDBRANCH   2   3
ENDBRANCH   1   2
BRANCH   1   9
ATOM      9  NAW RX4 d          28.499  -6.132  42.507  0.00  0.00    -0.345 N 
ATOM     10  CBB RX4 d          27.506  -6.285  43.387  0.00  0.00     0.241 C 
ATOM     11  OAI RX4 d          26.640  -7.170  43.267  0.00  0.00    -0.271 OA
ATOM     12  H   RX4 d          29.229  -5.433  42.649  0.00  0.00     0.163 HD
BRANCH  10  13
ATOM     13  CBF RX4 d          27.289  -5.218  44.473  0.00  0.00     0.186 C 
BRANCH  13  14
ATOM     14  CAR RX4 d          27.118  -3.853  43.887  0.00  0.00     0.147 C 
BRANCH  14  15
ATOM     15  CAZ RX4 d          28.116  -2.937  44.634  0.00  0.00     0.175 C 
ATOM     16  OAK RX4 d          29.287  -2.789  44.180  0.00  0.00    -0.648 OA
ATOM     17  OAG RX4 d          27.670  -2.348  45.615  0.00  0.00    -0.648 OA
ENDBRANCH  14  15
ENDBRANCH  13  14
BRANCH  13  18
ATOM     18  NAU RX4 d          28.502  -5.334  45.355  0.00  0.00    -0.348 N 
ATOM     19  CAX RX4 d          28.726  -6.395  46.153  0.00  0.00     0.214 C 
ATOM     20  CAA RX4 d          30.060  -6.365  46.954  0.00  0.00     0.117 C 
ATOM     21  OAE RX4 d          27.931  -7.357  46.275  0.00  0.00    -0.274 OA
ATOM     22  H   RX4 d          29.185  -4.576  45.348  0.00  0.00     0.163 HD
ENDBRANCH  13  18
ENDBRANCH  10  13
ENDBRANCH   1   9
BRANCH   1  23
ATOM     23  P1  RX4 d          29.531  -8.416  41.790  0.00  0.00     0.130 P 
ATOM     24  O4  RX4 d          30.609  -8.655  40.747  0.00  0.00    -0.666 OA
ATOM     25  O3  RX4 d          28.795  -9.736  41.760  0.00  0.00    -0.666 OA
BRANCH  23  26
ATOM     26  CAT RX4 d          30.254  -8.052  43.383  0.00  0.00     0.119 C 
BRANCH  26  27
ATOM     27  CBD RX4 d          31.129  -9.141  44.013  0.00  0.00     0.083 C 
ATOM     28  CAB RX4 d          31.910  -8.647  45.331  0.00  0.00     0.020 C 
BRANCH  27  29
ATOM     29  CBA RX4 d          30.137 -10.241  44.556  0.00  0.00     0.222 C 
ATOM     30  OAH RX4 d          30.363 -11.443  44.349  0.00  0.00    -0.273 OA
ATOM     31  N   RX4 d          29.028  -9.818  45.147  0.00  0.00    -0.348 N 
ATOM     32  H   RX4 d          28.856  -8.822  45.281  0.00  0.00     0.163 HD
BRANCH  31  33
ATOM     33  CA  RX4 d          28.026 -10.846  45.616  0.00  0.00     0.172 C 
ATOM     34  CB  RX4 d          27.725 -10.634  47.107  0.00  0.00     0.042 C 
BRANCH  33  35
ATOM     35  C   RX4 d          26.733 -10.571  44.775  0.00  0.00     0.237 C 
ATOM     36  O   RX4 d          25.855  -9.761  45.226  0.00  0.00    -0.271 OA
ATOM     37  NAD RX4 d          26.618 -11.167  43.602  0.00  0.00    -0.368 N 
ATOM     38  H   RX4 d          25.802 -10.987  43.016  0.00  0.00     0.159 HD
ATOM     39  H   RX4 d          27.344 -11.808  43.282  0.00  0.00     0.159 HD
ENDBRANCH  33  35
ENDBRANCH  31  33
ENDBRANCH  27  29
ENDBRANCH  26  27
ENDBRANCH  23  26
ENDBRANCH   1  23
TORSDOF 13
ENDMDL
MODEL 4
REMARK VINA RESULT:      -8.4      2.455      3.417
REMARK  13 active torsions:
REMARK  status: ('A' for Active; 'I' for Inactive)
REMARK    1  A    between atoms: CBC_6  and  CAS_7 
REMARK    2  A    between atoms: CAS_7  and  CBG_8 
REMARK    3  A    between atoms: CBG_8  and  NAW_9 
REMARK    4  A    between atoms: CBG_8  and  P1_21 
REMARK       I    between atoms: NAW_9  and  CBB_10 
REMARK    5  A    between atoms: CBB_10  and  CBF_12 
REMARK    6  A    between atoms: CBF_12  and  CAR_13 
REMARK    7  A    between atoms: CBF_12  and  NAU_17 
REMARK    8  A    between atoms: CAR_13  and  CAZ_14 
REMARK       I    between atoms: NAU_17  and  CAX_18 
REMARK    9  A    between atoms: P1_21  and  CAT_24 
REMARK   10  A    between atoms: CAT_24  and  CBD_25 
REMARK   11  A    between atoms: CBD_25  and  CBA_27 
REMARK       I    between atoms: CBA_27  and  N_29 
REMARK   12  A    between atoms: N_29  and  CA_30 
REMARK   13  A    between atoms: CA_30  and  C_32 
REMARK       I    between atoms: C_32  and  NAD_34 
ROOT
ATOM      1  CBG RX4 d          30.550  -6.826  43.693  0.00  0.00     0.180 C 
ENDROOT
BRANCH   1   2
ATOM      2  CAS RX4 d          31.439  -7.925  44.391  0.00  0.00     0.074 C 
BRANCH   2   3
ATOM      3  CBC RX4 d          30.469  -8.749  45.276  0.00  0.00    -0.056 A 
ATOM      4  CAP RX4 d          29.610  -8.000  46.119  0.00  0.00     0.007 A 
ATOM      5  CAN RX4 d          28.716  -8.582  47.006  0.00  0.00     0.001 A 
ATOM      6  CAM RX4 d          28.756  -9.995  47.030  0.00  0.00     0.000 A 
ATOM      7  CAO RX4 d          29.624 -10.770  46.225  0.00  0.00     0.001 A 
ATOM      8  CAQ RX4 d          30.505 -10.141  45.330  0.00  0.00     0.007 A 
ENDBRANCH   2   3
ENDBRANCH   1   2
BRANCH   1   9
ATOM      9  NAW RX4 d          30.402  -7.104  42.267  0.00  0.00    -0.345 N 
ATOM     10  CBB RX4 d          29.237  -7.610  41.853  0.00  0.00     0.241 C 
ATOM     11  OAI RX4 d          28.276  -7.787  42.624  0.00  0.00    -0.271 OA
ATOM     12  H   RX4 d          31.161  -6.919  41.611  0.00  0.00     0.163 HD
BRANCH  10  13
ATOM     13  CBF RX4 d          29.128  -8.189  40.433  0.00  0.00     0.186 C 
BRANCH  13  14
ATOM     14  CAR RX4 d          30.466  -8.315  39.777  0.00  0.00     0.147 C 
BRANCH  14  15
ATOM     15  CAZ RX4 d          30.313  -9.411  38.696  0.00  0.00     0.175 C 
ATOM     16  OAK RX4 d          30.908 -10.517  38.840  0.00  0.00    -0.648 OA
ATOM     17  OAG RX4 d          29.549  -9.147  37.771  0.00  0.00    -0.648 OA
ENDBRANCH  14  15
ENDBRANCH  13  14
BRANCH  13  18
ATOM     18  NAU RX4 d          28.206  -7.240  39.715  0.00  0.00    -0.348 N 
ATOM     19  CAX RX4 d          26.913  -7.522  39.472  0.00  0.00     0.214 C 
ATOM     20  CAA RX4 d          26.100  -6.398  38.765  0.00  0.00     0.117 C 
ATOM     21  OAE RX4 d          26.366  -8.610  39.774  0.00  0.00    -0.274 OA
ATOM     22  H   RX4 d          28.578  -6.344  39.399  0.00  0.00     0.163 HD
ENDBRANCH  13  18
ENDBRANCH  10  13
ENDBRANCH   1   9
BRANCH   1  23
ATOM     23  P1  RX4 d          31.270  -5.172  43.786  0.00  0.00     0.130 P 
ATOM     24  O4  RX4 d          32.324  -4.984  42.709  0.00  0.00    -0.666 OA
ATOM     25  O3  RX4 d          32.083  -4.932  45.038  0.00  0.00    -0.666 OA
BRANCH  23  26
ATOM     26  CAT RX4 d          29.934  -4.003  43.581  0.00  0.00     0.119 C 
BRANCH  26  27
ATOM     27  CBD RX4 d          28.536  -4.467  44.002  0.00  0.00     0.083 C 
ATOM     28  CAB RX4 d          28.418  -4.788  45.575  0.00  0.00     0.020 C 
BRANCH  27  29
ATOM     29  CBA RX4 d          27.583  -3.226  43.802  0.00  0.00     0.222 C 
ATOM     30  OAH RX4 d          26.716  -3.240  42.914  0.00  0.00    -0.273 OA
ATOM     31  N   RX4 d          27.815  -2.156  44.551  0.00  0.00    -0.348 N 
ATOM     32  H   RX4 d          28.551  -2.164  45.256  0.00  0.00     0.163 HD
BRANCH  31  33
ATOM     33  CA  RX4 d          26.963  -0.928  44.334  0.00  0.00     0.172 C 
ATOM     34  CB  RX4 d          25.944  -0.797  45.475  0.00  0.00     0.042 C 
BRANCH  33  35
ATOM     35  C   RX4 d          27.963   0.278  44.383  0.00  0.00     0.237 C 
ATOM     36  O   RX4 d          27.942   1.067  45.387  0.00  0.00    -0.271 OA
ATOM     37  NAD RX4 d          28.825   0.410  43.390  0.00  0.00    -0.368 N 
ATOM     38  H   RX4 d          29.509   1.166  43.406  0.00  0.00     0.159 HD
ATOM     39  H   RX4 d          28.805  -0.244  42.608  0.00  0.00     0.159 HD
ENDBRANCH  33  35
ENDBRANCH  31  33
ENDBRANCH  27  29
ENDBRANCH  26  27
ENDBRANCH  23  26
ENDBRANCH   1  23
TORSDOF 13
ENDMDL
MODEL 5
REMARK VINA RESULT:      -8.4      1.527      2.690
REMARK  13 active torsions:
REMARK  status: ('A' for Active; 'I' for Inactive)
REMARK    1  A    between atoms: CBC_6  and  CAS_7 
REMARK    2  A    between atoms: CAS_7  and  CBG_8 
REMARK    3  A    between atoms: CBG_8  and  NAW_9 
REMARK    4  A    between atoms: CBG_8  and  P1_21 
REMARK       I    between atoms: NAW_9  and  CBB_10 
REMARK    5  A    between atoms: CBB_10  and  CBF_12 
REMARK    6  A    between atoms: CBF_12  and  CAR_13 
REMARK    7  A    between atoms: CBF_12  and  NAU_17 
REMARK    8  A    between atoms: CAR_13  and  CAZ_14 
REMARK       I    between atoms: NAU_17  and  CAX_18 
REMARK    9  A    between atoms: P1_21  and  CAT_24 
REMARK   10  A    between atoms: CAT_24  and  CBD_25 
REMARK   11  A    between atoms: CBD_25  and  CBA_27 
REMARK       I    between atoms: CBA_27  and  N_29 
REMARK   12  A    between atoms: N_29  and  CA_30 
REMARK   13  A    between atoms: CA_30  and  C_32 
REMARK       I    between atoms: C_32  and  NAD_34 
ROOT
ATOM      1  CBG RX4 d          28.820  -8.994  43.301  0.00  0.00     0.180 C 
ENDROOT
BRANCH   1   2
ATOM      2  CAS RX4 d          28.165 -10.425  43.203  0.00  0.00     0.074 C 
BRANCH   2   3
ATOM      3  CBC RX4 d          27.527 -10.690  44.590  0.00  0.00    -0.056 A 
ATOM      4  CAP RX4 d          26.679  -9.669  45.088  0.00  0.00     0.007 A 
ATOM      5  CAN RX4 d          26.068  -9.727  46.333  0.00  0.00     0.001 A 
ATOM      6  CAM RX4 d          26.390 -10.878  47.087  0.00  0.00     0.000 A 
ATOM      7  CAO RX4 d          27.258 -11.898  46.632  0.00  0.00     0.001 A 
ATOM      8  CAQ RX4 d          27.847 -11.807  45.360  0.00  0.00     0.007 A 
ENDBRANCH   2   3
ENDBRANCH   1   2
BRANCH   1   9
ATOM      9  NAW RX4 d          28.898  -8.365  41.986  0.00  0.00    -0.345 N 
ATOM     10  CBB RX4 d          27.907  -7.540  41.634  0.00  0.00     0.241 C 
ATOM     11  OAI RX4 d          26.975  -7.253  42.406  0.00  0.00    -0.271 OA
ATOM     12  H   RX4 d          29.680  -8.549  41.358  0.00  0.00     0.163 HD
BRANCH  10  13
ATOM     13  CBF RX4 d          27.787  -7.087  40.170  0.00  0.00     0.186 C 
BRANCH  13  14
ATOM     14  CAR RX4 d          26.451  -6.478  39.883  0.00  0.00     0.147 C 
BRANCH  14  15
ATOM     15  CAZ RX4 d          26.671  -5.496  38.707  0.00  0.00     0.175 C 
ATOM     16  OAK RX4 d          26.647  -5.929  37.520  0.00  0.00    -0.648 OA
ATOM     17  OAG RX4 d          26.796  -4.314  39.015  0.00  0.00    -0.648 OA
ENDBRANCH  14  15
ENDBRANCH  13  14
BRANCH  13  18
ATOM     18  NAU RX4 d          28.051  -8.335  39.372  0.00  0.00    -0.348 N 
ATOM     19  CAX RX4 d          28.963  -8.390  38.384  0.00  0.00     0.214 C 
ATOM     20  CAA RX4 d          29.137  -9.781  37.705  0.00  0.00     0.117 C 
ATOM     21  OAE RX4 d          29.642  -7.406  38.003  0.00  0.00    -0.274 OA
ATOM     22  H   RX4 d          27.515  -9.176  39.590  0.00  0.00     0.163 HD
ENDBRANCH  13  18
ENDBRANCH  10  13
ENDBRANCH   1   9
BRANCH   1  23
ATOM     23  P1  RX4 d          30.519  -9.036  43.913  0.00  0.00     0.130 P 
ATOM     24  O4  RX4 d          31.505  -8.831  42.776  0.00  0.00    -0.666 OA
ATOM     25  O3  RX4 d          30.946 -10.391  44.431  0.00  0.00    -0.666 OA
BRANCH  23  26
ATOM     26  CAT RX4 d          30.673  -7.738  45.132  0.00  0.00     0.119 C 
BRANCH  26  27
ATOM     27  CBD RX4 d          29.401  -6.956  45.477  0.00  0.00     0.083 C 
ATOM     28  CAB RX4 d          29.456  -6.258  46.926  0.00  0.00     0.020 C 
BRANCH  27  29
ATOM     29  CBA RX4 d          29.351  -5.738  44.476  0.00  0.00     0.222 C 
ATOM     30  OAH RX4 d          30.392  -5.322  43.944  0.00  0.00    -0.273 OA
ATOM     31  N   RX4 d          28.181  -5.136  44.313  0.00  0.00    -0.348 N 
ATOM     32  H   RX4 d          27.345  -5.483  44.783  0.00  0.00     0.163 HD
BRANCH  31  33
ATOM     33  CA  RX4 d          28.115  -3.923  43.414  0.00  0.00     0.172 C 
ATOM     34  CB  RX4 d          26.792  -3.927  42.635  0.00  0.00     0.042 C 
BRANCH  33  35
ATOM     35  C   RX4 d          28.149  -2.693  44.384  0.00  0.00     0.237 C 
ATOM     36  O   RX4 d          27.801  -2.848  45.603  0.00  0.00    -0.271 OA
ATOM     37  NAD RX4 d          28.577  -1.538  43.905  0.00  0.00    -0.368 N 
ATOM     38  H   RX4 d          28.640  -0.724  44.517  0.00  0.00     0.159 HD
ATOM     39  H   RX4 d          28.844  -1.460  42.924  0.00  0.00     0.159 HD
ENDBRANCH  33  35
ENDBRANCH  31  33
ENDBRANCH  27  29
ENDBRANCH  26  27
ENDBRANCH  23  26
ENDBRANCH   1  23
TORSDOF 13
ENDMDL
MODEL 6
REMARK VINA RESULT:      -8.3      2.469      3.740
REMARK  13 active torsions:
REMARK  status: ('A' for Active; 'I' for Inactive)
REMARK    1  A    between atoms: CBC_6  and  CAS_7 
REMARK    2  A    between atoms: CAS_7  and  CBG_8 
REMARK    3  A    between atoms: CBG_8  and  NAW_9 
REMARK    4  A    between atoms: CBG_8  and  P1_21 
REMARK       I    between atoms: NAW_9  and  CBB_10 
REMARK    5  A    between atoms: CBB_10  and  CBF_12 
REMARK    6  A    between atoms: CBF_12  and  CAR_13 
REMARK    7  A    between atoms: CBF_12  and  NAU_17 
REMARK    8  A    between atoms: CAR_13  and  CAZ_14 
REMARK       I    between atoms: NAU_17  and  CAX_18 
REMARK    9  A    between atoms: P1_21  and  CAT_24 
REMARK   10  A    between atoms: CAT_24  and  CBD_25 
REMARK   11  A    between atoms: CBD_25  and  CBA_27 
REMARK       I    between atoms: CBA_27  and  N_29 
REMARK   12  A    between atoms: N_29  and  CA_30 
REMARK   13  A    between atoms: CA_30  and  C_32 
REMARK       I    between atoms: C_32  and  NAD_34 
ROOT
ATOM      1  CBG RX4 d          30.059  -6.862  42.461  0.00  0.00     0.180 C 
ENDROOT
BRANCH   1   2
ATOM      2  CAS RX4 d          30.525  -8.228  43.095  0.00  0.00     0.074 C 
BRANCH   2   3
ATOM      3  CBC RX4 d          29.686  -8.399  44.387  0.00  0.00    -0.056 A 
ATOM      4  CAP RX4 d          28.279  -8.429  44.213  0.00  0.00     0.007 A 
ATOM      5  CAN RX4 d          27.383  -8.528  45.269  0.00  0.00     0.001 A 
ATOM      6  CAM RX4 d          27.989  -8.560  46.546  0.00  0.00     0.000 A 
ATOM      7  CAO RX4 d          29.387  -8.499  46.753  0.00  0.00     0.001 A 
ATOM      8  CAQ RX4 d          30.260  -8.412  45.656  0.00  0.00     0.007 A 
ENDBRANCH   2   3
ENDBRANCH   1   2
BRANCH   1   9
ATOM      9  NAW RX4 d          30.166  -6.899  41.006  0.00  0.00    -0.345 N 
ATOM     10  CBB RX4 d          29.104  -6.505  40.297  0.00  0.00     0.241 C 
ATOM     11  OAI RX4 d          28.074  -6.059  40.833  0.00  0.00    -0.271 OA
ATOM     12  H   RX4 d          31.021  -7.214  40.547  0.00  0.00     0.163 HD
BRANCH  10  13
ATOM     13  CBF RX4 d          29.054  -6.796  38.788  0.00  0.00     0.186 C 
BRANCH  13  14
ATOM     14  CAR RX4 d          27.848  -6.192  38.143  0.00  0.00     0.147 C 
BRANCH  14  15
ATOM     15  CAZ RX4 d          26.863  -7.360  37.896  0.00  0.00     0.175 C 
ATOM     16  OAK RX4 d          26.925  -8.010  36.814  0.00  0.00    -0.648 OA
ATOM     17  OAG RX4 d          26.104  -7.624  38.824  0.00  0.00    -0.648 OA
ENDBRANCH  14  15
ENDBRANCH  13  14
BRANCH  13  18
ATOM     18  NAU RX4 d          29.082  -8.298  38.699  0.00  0.00    -0.348 N 
ATOM     19  CAX RX4 d          30.213  -8.996  38.486  0.00  0.00     0.214 C 
ATOM     20  CAA RX4 d          30.056 -10.545  38.477  0.00  0.00     0.117 C 
ATOM     21  OAE RX4 d          31.334  -8.468  38.295  0.00  0.00    -0.274 OA
ATOM     22  H   RX4 d          28.205  -8.809  38.805  0.00  0.00     0.163 HD
ENDBRANCH  13  18
ENDBRANCH  10  13
ENDBRANCH   1   9
BRANCH   1  23
ATOM     23  P1  RX4 d          31.073  -5.460  42.981  0.00  0.00     0.130 P 
ATOM     24  O4  RX4 d          31.906  -4.942  41.821  0.00  0.00    -0.666 OA
ATOM     25  O3  RX4 d          32.151  -5.825  43.976  0.00  0.00    -0.666 OA
BRANCH  23  26
ATOM     26  CAT RX4 d          29.961  -4.197  43.581  0.00  0.00     0.119 C 
BRANCH  26  27
ATOM     27  CBD RX4 d          28.571  -4.656  44.035  0.00  0.00     0.083 C 
ATOM     28  CAB RX4 d          28.478  -4.935  45.618  0.00  0.00     0.020 C 
BRANCH  27  29
ATOM     29  CBA RX4 d          27.609  -3.425  43.815  0.00  0.00     0.222 C 
ATOM     30  OAH RX4 d          26.731  -3.467  42.940  0.00  0.00    -0.273 OA
ATOM     31  N   RX4 d          27.846  -2.336  44.533  0.00  0.00    -0.348 N 
ATOM     32  H   RX4 d          28.591  -2.321  45.229  0.00  0.00     0.163 HD
BRANCH  31  33
ATOM     33  CA  RX4 d          26.985  -1.117  44.296  0.00  0.00     0.172 C 
ATOM     34  CB  RX4 d          25.928  -1.007  45.404  0.00  0.00     0.042 C 
BRANCH  33  35
ATOM     35  C   RX4 d          27.966   0.101  44.383  0.00  0.00     0.237 C 
ATOM     36  O   RX4 d          27.917   0.871  45.401  0.00  0.00    -0.271 OA
ATOM     37  NAD RX4 d          28.841   0.264  43.407  0.00  0.00    -0.368 N 
ATOM     38  H   RX4 d          29.515   1.029  43.448  0.00  0.00     0.159 HD
ATOM     39  H   RX4 d          28.844  -0.375  42.612  0.00  0.00     0.159 HD
ENDBRANCH  33  35
ENDBRANCH  31  33
ENDBRANCH  27  29
ENDBRANCH  26  27
ENDBRANCH  23  26
ENDBRANCH   1  23
TORSDOF 13
ENDMDL
MODEL 7
REMARK VINA RESULT:      -8.0      1.746      2.467
REMARK  13 active torsions:
REMARK  status: ('A' for Active; 'I' for Inactive)
REMARK    1  A    between atoms: CBC_6  and  CAS_7 
REMARK    2  A    between atoms: CAS_7  and  CBG_8 
REMARK    3  A    between atoms: CBG_8  and  NAW_9 
REMARK    4  A    between atoms: CBG_8  and  P1_21 
REMARK       I    between atoms: NAW_9  and  CBB_10 
REMARK    5  A    between atoms: CBB_10  and  CBF_12 
REMARK    6  A    between atoms: CBF_12  and  CAR_13 
REMARK    7  A    between atoms: CBF_12  and  NAU_17 
REMARK    8  A    between atoms: CAR_13  and  CAZ_14 
REMARK       I    between atoms: NAU_17  and  CAX_18 
REMARK    9  A    between atoms: P1_21  and  CAT_24 
REMARK   10  A    between atoms: CAT_24  and  CBD_25 
REMARK   11  A    between atoms: CBD_25  and  CBA_27 
REMARK       I    between atoms: CBA_27  and  N_29 
REMARK   12  A    between atoms: N_29  and  CA_30 
REMARK   13  A    between atoms: CA_30  and  C_32 
REMARK       I    between atoms: C_32  and  NAD_34 
ROOT
ATOM      1  CBG RX4 d          29.184  -9.257  43.616  0.00  0.00     0.180 C 
ENDROOT
BRANCH   1   2
ATOM      2  CAS RX4 d          28.630 -10.732  43.639  0.00  0.00     0.074 C 
BRANCH   2   3
ATOM      3  CBC RX4 d          27.717 -10.818  44.889  0.00  0.00    -0.056 A 
ATOM      4  CAP RX4 d          26.868  -9.705  45.115  0.00  0.00     0.007 A 
ATOM      5  CAN RX4 d          26.025  -9.602  46.212  0.00  0.00     0.001 A 
ATOM      6  CAM RX4 d          26.107 -10.687  47.115  0.00  0.00     0.000 A 
ATOM      7  CAO RX4 d          26.967 -11.795  46.934  0.00  0.00     0.001 A 
ATOM      8  CAQ RX4 d          27.796 -11.867  45.802  0.00  0.00     0.007 A 
ENDBRANCH   2   3
ENDBRANCH   1   2
BRANCH   1   9
ATOM      9  NAW RX4 d          29.499  -8.839  42.253  0.00  0.00    -0.345 N 
ATOM     10  CBB RX4 d          28.555  -8.181  41.574  0.00  0.00     0.241 C 
ATOM     11  OAI RX4 d          27.464  -7.868  42.084  0.00  0.00    -0.271 OA
ATOM     12  H   RX4 d          30.406  -9.042  41.835  0.00  0.00     0.163 HD
BRANCH  10  13
ATOM     13  CBF RX4 d          28.718  -7.978  40.059  0.00  0.00     0.186 C 
BRANCH  13  14
ATOM     14  CAR RX4 d          30.140  -8.138  39.625  0.00  0.00     0.147 C 
BRANCH  14  15
ATOM     15  CAZ RX4 d          30.799  -6.748  39.788  0.00  0.00     0.175 C 
ATOM     16  OAK RX4 d          31.295  -6.420  40.903  0.00  0.00    -0.648 OA
ATOM     17  OAG RX4 d          30.851  -6.058  38.773  0.00  0.00    -0.648 OA
ENDBRANCH  14  15
ENDBRANCH  13  14
BRANCH  13  18
ATOM     18  NAU RX4 d          28.177  -6.596  39.809  0.00  0.00    -0.348 N 
ATOM     19  CAX RX4 d          27.062  -6.367  39.092  0.00  0.00     0.214 C 
ATOM     20  CAA RX4 d          26.624  -4.877  38.984  0.00  0.00     0.117 C 
ATOM     21  OAE RX4 d          26.397  -7.269  38.528  0.00  0.00    -0.274 OA
ATOM     22  H   RX4 d          28.678  -5.798  40.201  0.00  0.00     0.163 HD
ENDBRANCH  13  18
ENDBRANCH  10  13
ENDBRANCH   1   9
BRANCH   1  23
ATOM     23  P1  RX4 d          30.723  -9.067  44.543  0.00  0.00     0.130 P 
ATOM     24  O4  RX4 d          31.923  -9.341  43.653  0.00  0.00    -0.666 OA
ATOM     25  O3  RX4 d          30.915 -10.107  45.623  0.00  0.00    -0.666 OA
BRANCH  23  26
ATOM     26  CAT RX4 d          30.761  -7.392  45.165  0.00  0.00     0.119 C 
BRANCH  26  27
ATOM     27  CBD RX4 d          29.420  -6.773  45.572  0.00  0.00     0.083 C 
ATOM     28  CAB RX4 d          29.415  -6.197  47.075  0.00  0.00     0.020 C 
BRANCH  27  29
ATOM     29  CBA RX4 d          29.241  -5.486  44.678  0.00  0.00     0.222 C 
ATOM     30  OAH RX4 d          30.235  -4.853  44.288  0.00  0.00    -0.273 OA
ATOM     31  N   RX4 d          28.002  -5.074  44.451  0.00  0.00    -0.348 N 
ATOM     32  H   RX4 d          27.204  -5.600  44.805  0.00  0.00     0.163 HD
BRANCH  31  33
ATOM     33  CA  RX4 d          27.800  -3.806  43.655  0.00  0.00     0.172 C 
ATOM     34  CB  RX4 d          26.799  -4.060  42.520  0.00  0.00     0.042 C 
BRANCH  33  35
ATOM     35  C   RX4 d          27.193  -2.778  44.670  0.00  0.00     0.237 C 
ATOM     36  O   RX4 d          27.802  -2.551  45.769  0.00  0.00    -0.271 OA
ATOM     37  NAD RX4 d          26.081  -2.151  44.327  0.00  0.00    -0.368 N 
ATOM     38  H   RX4 d          25.676  -1.454  44.952  0.00  0.00     0.159 HD
ATOM     39  H   RX4 d          25.628  -2.365  43.439  0.00  0.00     0.159 HD
ENDBRANCH  33  35
ENDBRANCH  31  33
ENDBRANCH  27  29
ENDBRANCH  26  27
ENDBRANCH  23  26
ENDBRANCH   1  23
TORSDOF 13
ENDMDL
MODEL 8
REMARK VINA RESULT:      -7.9     11.056     15.765
REMARK  13 active torsions:
REMARK  status: ('A' for Active; 'I' for Inactive)
REMARK    1  A    between atoms: CBC_6  and  CAS_7 
REMARK    2  A    between atoms: CAS_7  and  CBG_8 
REMARK    3  A    between atoms: CBG_8  and  NAW_9 
REMARK    4  A    between atoms: CBG_8  and  P1_21 
REMARK       I    between atoms: NAW_9  and  CBB_10 
REMARK    5  A    between atoms: CBB_10  and  CBF_12 
REMARK    6  A    between atoms: CBF_12  and  CAR_13 
REMARK    7  A    between atoms: CBF_12  and  NAU_17 
REMARK    8  A    between atoms: CAR_13  and  CAZ_14 
REMARK       I    between atoms: NAU_17  and  CAX_18 
REMARK    9  A    between atoms: P1_21  and  CAT_24 
REMARK   10  A    between atoms: CAT_24  and  CBD_25 
REMARK   11  A    between atoms: CBD_25  and  CBA_27 
REMARK       I    between atoms: CBA_27  and  N_29 
REMARK   12  A    between atoms: N_29  and  CA_30 
REMARK   13  A    between atoms: CA_30  and  C_32 
REMARK       I    between atoms: C_32  and  NAD_34 
ROOT
ATOM      1  CBG RX4 d          26.145   7.294  43.080  0.00  0.00     0.180 C 
ENDROOT
BRANCH   1   2
ATOM      2  CAS RX4 d          26.100   8.120  41.738  0.00  0.00     0.074 C 
BRANCH   2   3
ATOM      3  CBC RX4 d          25.494   7.165  40.678  0.00  0.00    -0.056 A 
ATOM      4  CAP RX4 d          25.472   5.790  41.022  0.00  0.00     0.007 A 
ATOM      5  CAN RX4 d          25.008   4.798  40.169  0.00  0.00     0.001 A 
ATOM      6  CAM RX4 d          24.589   5.268  38.904  0.00  0.00     0.000 A 
ATOM      7  CAO RX4 d          24.629   6.629  38.518  0.00  0.00     0.001 A 
ATOM      8  CAQ RX4 d          25.094   7.603  39.417  0.00  0.00     0.007 A 
ENDBRANCH   2   3
ENDBRANCH   1   2
BRANCH   1   9
ATOM      9  NAW RX4 d          25.481   8.018  44.160  0.00  0.00    -0.345 N 
ATOM     10  CBB RX4 d          24.344   7.507  44.641  0.00  0.00     0.241 C 
ATOM     11  OAI RX4 d          23.881   6.422  44.243  0.00  0.00    -0.271 OA
ATOM     12  H   RX4 d          25.871   8.883  44.534  0.00  0.00     0.163 HD
BRANCH  10  13
ATOM     13  CBF RX4 d          23.460   8.365  45.561  0.00  0.00     0.186 C 
BRANCH  13  14
ATOM     14  CAR RX4 d          24.083   9.693  45.853  0.00  0.00     0.147 C 
BRANCH  14  15
ATOM     15  CAZ RX4 d          22.912  10.669  46.115  0.00  0.00     0.175 C 
ATOM     16  OAK RX4 d          22.312  10.639  47.227  0.00  0.00    -0.648 OA
ATOM     17  OAG RX4 d          22.676  11.474  45.218  0.00  0.00    -0.648 OA
ENDBRANCH  14  15
ENDBRANCH  13  14
BRANCH  13  18
ATOM     18  NAU RX4 d          23.272   7.518  46.790  0.00  0.00    -0.348 N 
ATOM     19  CAX RX4 d          22.059   7.207  47.284  0.00  0.00     0.214 C 
ATOM     20  CAA RX4 d          22.058   6.276  48.532  0.00  0.00     0.117 C 
ATOM     21  OAE RX4 d          20.980   7.627  46.802  0.00  0.00    -0.274 OA
ATOM     22  H   RX4 d          24.100   7.163  47.270  0.00  0.00     0.163 HD
ENDBRANCH  13  18
ENDBRANCH  10  13
ENDBRANCH   1   9
BRANCH   1  23
ATOM     23  P1  RX4 d          27.826   6.993  43.668  0.00  0.00     0.130 P 
ATOM     24  O4  RX4 d          28.276   8.104  44.601  0.00  0.00    -0.666 OA
ATOM     25  O3  RX4 d          28.875   7.080  42.582  0.00  0.00    -0.666 OA
BRANCH  23  26
ATOM     26  CAT RX4 d          27.817   5.417  44.510  0.00  0.00     0.119 C 
BRANCH  26  27
ATOM     27  CBD RX4 d          26.816   4.370  44.011  0.00  0.00     0.083 C 
ATOM     28  CAB RX4 d          27.466   3.301  42.998  0.00  0.00     0.020 C 
BRANCH  27  29
ATOM     29  CBA RX4 d          26.425   3.502  45.269  0.00  0.00     0.222 C 
ATOM     30  OAH RX4 d          26.408   4.012  46.400  0.00  0.00    -0.273 OA
ATOM     31  N   RX4 d          26.213   2.208  45.070  0.00  0.00    -0.348 N 
ATOM     32  H   RX4 d          26.259   1.810  44.132  0.00  0.00     0.163 HD
BRANCH  31  33
ATOM     33  CA  RX4 d          25.904   1.338  46.266  0.00  0.00     0.172 C 
ATOM     34  CB  RX4 d          24.418   1.469  46.630  0.00  0.00     0.042 C 
BRANCH  33  35
ATOM     35  C   RX4 d          26.202  -0.126  45.795  0.00  0.00     0.237 C 
ATOM     36  O   RX4 d          27.221  -0.738  46.262  0.00  0.00    -0.271 OA
ATOM     37  NAD RX4 d          25.356  -0.690  44.951  0.00  0.00    -0.368 N 
ATOM     38  H   RX4 d          25.504  -1.653  44.648  0.00  0.00     0.159 HD
ATOM     39  H   RX4 d          24.555  -0.164  44.603  0.00  0.00     0.159 HD
ENDBRANCH  33  35
ENDBRANCH  31  33
ENDBRANCH  27  29
ENDBRANCH  26  27
ENDBRANCH  23  26
ENDBRANCH   1  23
TORSDOF 13
ENDMDL
MODEL 9
REMARK VINA RESULT:      -7.8     10.714     15.421
REMARK  13 active torsions:
REMARK  status: ('A' for Active; 'I' for Inactive)
REMARK    1  A    between atoms: CBC_6  and  CAS_7 
REMARK    2  A    between atoms: CAS_7  and  CBG_8 
REMARK    3  A    between atoms: CBG_8  and  NAW_9 
REMARK    4  A    between atoms: CBG_8  and  P1_21 
REMARK       I    between atoms: NAW_9  and  CBB_10 
REMARK    5  A    between atoms: CBB_10  and  CBF_12 
REMARK    6  A    between atoms: CBF_12  and  CAR_13 
REMARK    7  A    between atoms: CBF_12  and  NAU_17 
REMARK    8  A    between atoms: CAR_13  and  CAZ_14 
REMARK       I    between atoms: NAU_17  and  CAX_18 
REMARK    9  A    between atoms: P1_21  and  CAT_24 
REMARK   10  A    between atoms: CAT_24  and  CBD_25 
REMARK   11  A    between atoms: CBD_25  and  CBA_27 
REMARK       I    between atoms: CBA_27  and  N_29 
REMARK   12  A    between atoms: N_29  and  CA_30 
REMARK   13  A    between atoms: CA_30  and  C_32 
REMARK       I    between atoms: C_32  and  NAD_34 
ROOT
ATOM      1  CBG RX4 d          26.019   6.741  43.242  0.00  0.00     0.180 C 
ENDROOT
BRANCH   1   2
ATOM      2  CAS RX4 d          26.032   7.811  42.085  0.00  0.00     0.074 C 
BRANCH   2   3
ATOM      3  CBC RX4 d          25.567   7.058  40.812  0.00  0.00    -0.056 A 
ATOM      4  CAP RX4 d          25.266   7.868  39.688  0.00  0.00     0.007 A 
ATOM      5  CAN RX4 d          24.792   7.358  38.487  0.00  0.00     0.001 A 
ATOM      6  CAM RX4 d          24.597   5.958  38.486  0.00  0.00     0.000 A 
ATOM      7  CAO RX4 d          24.856   5.128  39.602  0.00  0.00     0.001 A 
ATOM      8  CAQ RX4 d          25.347   5.683  40.795  0.00  0.00     0.007 A 
ENDBRANCH   2   3
ENDBRANCH   1   2
BRANCH   1   9
ATOM      9  NAW RX4 d          25.413   7.288  44.452  0.00  0.00    -0.345 N 
ATOM     10  CBB RX4 d          24.276   6.733  44.881  0.00  0.00     0.241 C 
ATOM     11  OAI RX4 d          23.766   5.744  44.323  0.00  0.00    -0.271 OA
ATOM     12  H   RX4 d          25.842   8.067  44.952  0.00  0.00     0.163 HD
BRANCH  10  13
ATOM     13  CBF RX4 d          23.449   7.446  45.963  0.00  0.00     0.186 C 
BRANCH  13  14
ATOM     14  CAR RX4 d          22.190   6.704  46.282  0.00  0.00     0.147 C 
BRANCH  14  15
ATOM     15  CAZ RX4 d          22.137   6.591  47.824  0.00  0.00     0.175 C 
ATOM     16  OAK RX4 d          22.993   5.883  48.427  0.00  0.00    -0.648 OA
ATOM     17  OAG RX4 d          21.276   7.267  48.381  0.00  0.00    -0.648 OA
ENDBRANCH  14  15
ENDBRANCH  13  14
BRANCH  13  18
ATOM     18  NAU RX4 d          23.198   8.817  45.396  0.00  0.00    -0.348 N 
ATOM     19  CAX RX4 d          23.302   9.941  46.129  0.00  0.00     0.214 C 
ATOM     20  CAA RX4 d          23.059  11.272  45.359  0.00  0.00     0.117 C 
ATOM     21  OAE RX4 d          23.569   9.953  47.355  0.00  0.00    -0.274 OA
ATOM     22  H   RX4 d          22.939   8.898  44.412  0.00  0.00     0.163 HD
ENDBRANCH  13  18
ENDBRANCH  10  13
ENDBRANCH   1   9
BRANCH   1  23
ATOM     23  P1  RX4 d          27.675   6.213  43.734  0.00  0.00     0.130 P 
ATOM     24  O4  RX4 d          27.834   6.277  45.243  0.00  0.00    -0.666 OA
ATOM     25  O3  RX4 d          28.772   7.152  43.283  0.00  0.00    -0.666 OA
BRANCH  23  26
ATOM     26  CAT RX4 d          27.895   4.542  43.141  0.00  0.00     0.119 C 
BRANCH  26  27
ATOM     27  CBD RX4 d          26.671   3.621  43.194  0.00  0.00     0.083 C 
ATOM     28  CAB RX4 d          26.724   2.428  42.115  0.00  0.00     0.020 C 
BRANCH  27  29
ATOM     29  CBA RX4 d          26.745   2.873  44.581  0.00  0.00     0.222 C 
ATOM     30  OAH RX4 d          27.802   2.864  45.231  0.00  0.00    -0.273 OA
ATOM     31  N   RX4 d          25.671   2.193  44.960  0.00  0.00    -0.348 N 
ATOM     32  H   RX4 d          24.824   2.197  44.393  0.00  0.00     0.163 HD
BRANCH  31  33
ATOM     33  CA  RX4 d          25.735   1.411  46.251  0.00  0.00     0.172 C 
ATOM     34  CB  RX4 d          24.364   1.437  46.941  0.00  0.00     0.042 C 
BRANCH  33  35
ATOM     35  C   RX4 d          26.079  -0.057  45.823  0.00  0.00     0.237 C 
ATOM     36  O   RX4 d          27.097  -0.635  46.334  0.00  0.00    -0.271 OA
ATOM     37  NAD RX4 d          25.271  -0.660  44.969  0.00  0.00    -0.368 N 
ATOM     38  H   RX4 d          25.449  -1.626  44.693  0.00  0.00     0.159 HD
ATOM     39  H   RX4 d          24.469  -0.159  44.586  0.00  0.00     0.159 HD
ENDBRANCH  33  35
ENDBRANCH  31  33
ENDBRANCH  27  29
ENDBRANCH  26  27
ENDBRANCH  23  26
ENDBRANCH   1  23
TORSDOF 13
ENDMDL
MODEL 10
REMARK VINA RESULT:      -7.8     10.101     14.635
REMARK  13 active torsions:
REMARK  status: ('A' for Active; 'I' for Inactive)
REMARK    1  A    between atoms: CBC_6  and  CAS_7 
REMARK    2  A    between atoms: CAS_7  and  CBG_8 
REMARK    3  A    between atoms: CBG_8  and  NAW_9 
REMARK    4  A    between atoms: CBG_8  and  P1_21 
REMARK       I    between atoms: NAW_9  and  CBB_10 
REMARK    5  A    between atoms: CBB_10  and  CBF_12 
REMARK    6  A    between atoms: CBF_12  and  CAR_13 
REMARK    7  A    between atoms: CBF_12  and  NAU_17 
REMARK    8  A    between atoms: CAR_13  and  CAZ_14 
REMARK       I    between atoms: NAU_17  and  CAX_18 
REMARK    9  A    between atoms: P1_21  and  CAT_24 
REMARK   10  A    between atoms: CAT_24  and  CBD_25 
REMARK   11  A    between atoms: CBD_25  and  CBA_27 
REMARK       I    between atoms: CBA_27  and  N_29 
REMARK   12  A    between atoms: N_29  and  CA_30 
REMARK   13  A    between atoms: CA_30  and  C_32 
REMARK       I    between atoms: C_32  and  NAD_34 
ROOT
ATOM      1  CBG RX4 d          24.105   5.681  46.542  0.00  0.00     0.180 C 
ENDROOT
BRANCH   1   2
ATOM      2  CAS RX4 d          23.070   6.293  45.523  0.00  0.00     0.074 C 
BRANCH   2   3
ATOM      3  CBC RX4 d          23.585   7.720  45.208  0.00  0.00    -0.056 A 
ATOM      4  CAP RX4 d          22.912   8.781  45.865  0.00  0.00     0.007 A 
ATOM      5  CAN RX4 d          23.216  10.120  45.658  0.00  0.00     0.001 A 
ATOM      6  CAM RX4 d          24.235  10.345  44.704  0.00  0.00     0.000 A 
ATOM      7  CAO RX4 d          24.902   9.310  44.008  0.00  0.00     0.001 A 
ATOM      8  CAQ RX4 d          24.573   7.967  44.257  0.00  0.00     0.007 A 
ENDBRANCH   2   3
ENDBRANCH   1   2
BRANCH   1   9
ATOM      9  NAW RX4 d          24.309   4.258  46.287  0.00  0.00    -0.345 N 
ATOM     10  CBB RX4 d          25.394   3.903  45.592  0.00  0.00     0.241 C 
ATOM     11  OAI RX4 d          26.246   4.730  45.220  0.00  0.00    -0.271 OA
ATOM     12  H   RX4 d          23.648   3.560  46.628  0.00  0.00     0.163 HD
BRANCH  10  13
ATOM     13  CBF RX4 d          25.506   2.469  45.048  0.00  0.00     0.186 C 
BRANCH  13  14
ATOM     14  CAR RX4 d          24.896   1.470  45.979  0.00  0.00     0.147 C 
BRANCH  14  15
ATOM     15  CAZ RX4 d          25.810   0.224  45.930  0.00  0.00     0.175 C 
ATOM     16  OAK RX4 d          26.726   0.088  46.791  0.00  0.00    -0.648 OA
ATOM     17  OAG RX4 d          25.536  -0.607  45.069  0.00  0.00    -0.648 OA
ENDBRANCH  14  15
ENDBRANCH  13  14
BRANCH  13  18
ATOM     18  NAU RX4 d          26.983   2.263  44.847  0.00  0.00    -0.348 N 
ATOM     19  CAX RX4 d          27.534   2.067  43.635  0.00  0.00     0.214 C 
ATOM     20  CAA RX4 d          29.085   1.926  43.615  0.00  0.00     0.117 C 
ATOM     21  OAE RX4 d          26.874   1.991  42.571  0.00  0.00    -0.274 OA
ATOM     22  H   RX4 d          27.593   2.273  45.665  0.00  0.00     0.163 HD
ENDBRANCH  13  18
ENDBRANCH  10  13
ENDBRANCH   1   9
BRANCH   1  23
ATOM     23  P1  RX4 d          23.552   5.786  48.258  0.00  0.00     0.130 P 
ATOM     24  O4  RX4 d          23.546   4.411  48.905  0.00  0.00    -0.666 OA
ATOM     25  O3  RX4 d          22.101   6.185  48.406  0.00  0.00    -0.666 OA
BRANCH  23  26
ATOM     26  CAT RX4 d          24.673   6.886  49.109  0.00  0.00     0.119 C 
BRANCH  26  27
ATOM     27  CBD RX4 d          26.096   6.994  48.551  0.00  0.00     0.083 C 
ATOM     28  CAB RX4 d          26.921   8.241  49.146  0.00  0.00     0.020 C 
BRANCH  27  29
ATOM     29  CBA RX4 d          26.877   5.736  49.094  0.00  0.00     0.222 C 
ATOM     30  OAH RX4 d          27.804   5.241  48.433  0.00  0.00    -0.273 OA
ATOM     31  N   RX4 d          26.438   5.191  50.221  0.00  0.00    -0.348 N 
ATOM     32  H   RX4 d          25.658   5.603  50.730  0.00  0.00     0.163 HD
BRANCH  31  33
ATOM     33  CA  RX4 d          27.123   3.944  50.730  0.00  0.00     0.172 C 
ATOM     34  CB  RX4 d          27.053   3.905  52.263  0.00  0.00     0.042 C 
BRANCH  33  35
ATOM     35  C   RX4 d          26.296   2.752  50.137  0.00  0.00     0.237 C 
ATOM     36  O   RX4 d          25.232   2.372  50.733  0.00  0.00    -0.271 OA
ATOM     37  NAD RX4 d          26.718   2.205  49.010  0.00  0.00    -0.368 N 
ATOM     38  H   RX4 d          26.186   1.447  48.581  0.00  0.00     0.159 HD
ATOM     39  H   RX4 d          27.574   2.541  48.570  0.00  0.00     0.159 HD
ENDBRANCH  33  35
ENDBRANCH  31  33
ENDBRANCH  27  29
ENDBRANCH  26  27
ENDBRANCH  23  26
ENDBRANCH   1  23
TORSDOF 13
ENDMDL
