MODEL 1
REMARK VINA RESULT:     -11.5      0.000      0.000
REMARK  7 active torsions:
REMARK  status: ('A' for Active; 'I' for Inactive)
REMARK    1  A    between atoms: C1_1  and  C6_6 
REMARK    2  A    between atoms: C7_7  and  C2_2 
REMARK    3  A    between atoms: N4_4  and  C33_33 
REMARK       I    between atoms: C6_6  and  N11_11 
REMARK       I    between atoms: N8_8  and  C7_7 
REMARK    4  A    between atoms: C19_19  and  N8_8 
REMARK    5  A    between atoms: N11_11  and  C12_12 
REMARK    6  A    between atoms: N25_25  and  C21_21 
REMARK    7  A    between atoms: C33_33  and  C34_34 
ROOT
ATOM      1  C1  XBV d          10.314  66.301   3.868  0.00  0.00     0.121 C 
ATOM      2  C2  XBV d           9.712  66.077   2.472  0.00  0.00     0.121 C 
ATOM      3  C3  XBV d           9.054  67.426   2.113  0.00  0.00     0.287 C 
ATOM      4  N4  XBV d           9.960  68.402   2.796  0.00  0.00     0.095 N 
ATOM      5  C5  XBV d          10.333  67.824   4.111  0.00  0.00     0.287 C 
ENDROOT
BRANCH   2   6
ATOM      6  C7  XBV d           8.691  64.961   2.520  0.00  0.00     0.229 C 
ATOM      7  N8  XBV d           9.122  63.859   3.071  0.00  0.00    -0.324 N 
ATOM      8  H   XBV d          10.069  63.868   3.451  0.00  0.00     0.169 HD
ATOM      9  O9  XBV d           7.540  65.096   2.133  0.00  0.00    -0.273 OA
BRANCH   7  10
ATOM     10  C19 XBV d           8.394  62.655   3.188  0.00  0.00     0.073 A 
ATOM     11  C20 XBV d           7.532  62.357   4.250  0.00  0.00     0.035 A 
ATOM     12  C23 XBV d           6.911  61.104   4.268  0.00  0.00     0.032 A 
ATOM     13  C21 XBV d           7.208  60.183   3.259  0.00  0.00     0.045 A 
ATOM     14  C22 XBV d           8.079  60.486   2.201  0.00  0.00     0.074 A 
ATOM     15  C24 XBV d           8.635  61.772   2.173  0.00  0.00     0.145 A 
ATOM     16  F32 XBV d           9.491  62.083   1.188  0.00  0.00    -0.204 F 
BRANCH  13  17
ATOM     17  N25 XBV d           6.614  58.885   3.220  0.00  0.00    -0.290 N 
ATOM     18  C26 XBV d           7.248  57.809   3.860  0.00  0.00     0.100 A 
ATOM     19  C29 XBV d           6.713  56.557   3.810  0.00  0.00     0.018 A 
ATOM     20  C27 XBV d           5.509  56.326   3.134  0.00  0.00     0.007 A 
ATOM     21  C28 XBV d           4.867  57.369   2.501  0.00  0.00     0.075 A 
ATOM     22  C30 XBV d           5.410  58.703   2.530  0.00  0.00     0.252 A 
ATOM     23  O31 XBV d           4.867  59.654   1.953  0.00  0.00    -0.268 OA
ENDBRANCH  13  17
ENDBRANCH   7  10
ENDBRANCH   2   6
BRANCH   1  24
ATOM     24  C6  XBV d          11.664  65.646   4.026  0.00  0.00     0.230 C 
ATOM     25  O10 XBV d          12.159  64.952   3.152  0.00  0.00    -0.273 OA
ATOM     26  N11 XBV d          12.341  65.971   5.151  0.00  0.00    -0.311 N 
ATOM     27  H   XBV d          11.940  66.727   5.706  0.00  0.00     0.170 HD
BRANCH  26  28
ATOM     28  C12 XBV d          13.514  65.411   5.653  0.00  0.00     0.129 A 
ATOM     29  N13 XBV d          14.373  64.818   4.807  0.00  0.00    -0.242 NA
ATOM     30  C16 XBV d          15.447  64.112   5.250  0.00  0.00     0.142 A 
ATOM     31  C14 XBV d          15.662  63.947   6.633  0.00  0.00     0.051 A 
ATOM     32  C15 XBV d          14.761  64.543   7.537  0.00  0.00     0.029 A 
ATOM     33 CL1  XBV d          16.959  62.968   7.242  0.00  0.00    -0.083 Cl
ATOM     34  C17 XBV d          13.671  65.262   7.038  0.00  0.00     0.052 A 
ENDBRANCH  26  28
ENDBRANCH   1  24
BRANCH   4  35
ATOM     35  C33 XBV d           9.294  69.702   2.979  0.00  0.00     0.343 C 
BRANCH  35  36
ATOM     36  C34 XBV d          10.014  70.813   2.213  0.00  0.00     0.381 C 
ATOM     37  F35 XBV d           9.234  71.967   2.081  0.00  0.00    -0.213 F 
ATOM     38  F36 XBV d          11.096  71.192   2.978  0.00  0.00    -0.213 F 
ENDBRANCH  35  36
ENDBRANCH   4  35
TORSDOF 7
ENDMDL
MODEL 2
REMARK VINA RESULT:     -10.8      1.053      1.459
REMARK  7 active torsions:
REMARK  status: ('A' for Active; 'I' for Inactive)
REMARK    1  A    between atoms: C1_1  and  C6_6 
REMARK    2  A    between atoms: C7_7  and  C2_2 
REMARK    3  A    between atoms: N4_4  and  C33_33 
REMARK       I    between atoms: C6_6  and  N11_11 
REMARK       I    between atoms: N8_8  and  C7_7 
REMARK    4  A    between atoms: C19_19  and  N8_8 
REMARK    5  A    between atoms: N11_11  and  C12_12 
REMARK    6  A    between atoms: N25_25  and  C21_21 
REMARK    7  A    between atoms: C33_33  and  C34_34 
ROOT
ATOM      1  C1  XBV d          10.338  66.322   3.901  0.00  0.00     0.121 C 
ATOM      2  C2  XBV d           9.757  66.131   2.492  0.00  0.00     0.121 C 
ATOM      3  C3  XBV d           9.227  67.526   2.099  0.00  0.00     0.287 C 
ATOM      4  N4  XBV d          10.194  68.431   2.797  0.00  0.00     0.095 N 
ATOM      5  C5  XBV d          10.480  67.840   4.128  0.00  0.00     0.287 C 
ENDROOT
BRANCH   2   6
ATOM      6  C7  XBV d           8.642  65.107   2.523  0.00  0.00     0.229 C 
ATOM      7  N8  XBV d           9.019  63.911   2.886  0.00  0.00    -0.324 N 
ATOM      8  H   XBV d           9.996  63.792   3.153  0.00  0.00     0.169 HD
ATOM      9  O9  XBV d           7.476  65.386   2.289  0.00  0.00    -0.273 OA
BRANCH   7  10
ATOM     10  C19 XBV d           8.194  62.767   2.941  0.00  0.00     0.073 A 
ATOM     11  C20 XBV d           7.340  62.464   4.008  0.00  0.00     0.035 A 
ATOM     12  C23 XBV d           6.614  61.270   3.957  0.00  0.00     0.032 A 
ATOM     13  C21 XBV d           6.803  60.404   2.876  0.00  0.00     0.045 A 
ATOM     14  C22 XBV d           7.666  60.711   1.814  0.00  0.00     0.074 A 
ATOM     15  C24 XBV d           8.330  61.944   1.858  0.00  0.00     0.145 A 
ATOM     16  F32 XBV d           9.182  62.255   0.870  0.00  0.00    -0.204 F 
BRANCH  13  17
ATOM     17  N25 XBV d           6.098  59.168   2.765  0.00  0.00    -0.290 N 
ATOM     18  C26 XBV d           4.812  59.146   2.204  0.00  0.00     0.100 A 
ATOM     19  C29 XBV d           4.111  57.981   2.117  0.00  0.00     0.018 A 
ATOM     20  C27 XBV d           4.670  56.780   2.569  0.00  0.00     0.007 A 
ATOM     21  C28 XBV d           5.933  56.777   3.120  0.00  0.00     0.075 A 
ATOM     22  C30 XBV d           6.699  57.992   3.233  0.00  0.00     0.252 A 
ATOM     23  O31 XBV d           7.826  58.023   3.743  0.00  0.00    -0.268 OA
ENDBRANCH  13  17
ENDBRANCH   7  10
ENDBRANCH   2   6
BRANCH   1  24
ATOM     24  C6  XBV d          11.621  65.556   4.106  0.00  0.00     0.230 C 
ATOM     25  O10 XBV d          11.955  64.634   3.376  0.00  0.00    -0.273 OA
ATOM     26  N11 XBV d          12.435  66.029   5.077  0.00  0.00    -0.311 N 
ATOM     27  H   XBV d          12.170  66.930   5.475  0.00  0.00     0.170 HD
BRANCH  26  28
ATOM     28  C12 XBV d          13.586  65.451   5.605  0.00  0.00     0.129 A 
ATOM     29  N13 XBV d          14.464  64.859   4.778  0.00  0.00    -0.242 NA
ATOM     30  C16 XBV d          15.518  64.137   5.243  0.00  0.00     0.142 A 
ATOM     31  C14 XBV d          15.689  63.952   6.630  0.00  0.00     0.051 A 
ATOM     32  C15 XBV d          14.768  64.546   7.514  0.00  0.00     0.029 A 
ATOM     33 CL1  XBV d          16.958  62.952   7.264  0.00  0.00    -0.083 Cl
ATOM     34  C17 XBV d          13.701  65.283   6.993  0.00  0.00     0.052 A 
ENDBRANCH  26  28
ENDBRANCH   1  24
BRANCH   4  35
ATOM     35  C33 XBV d           9.638  69.785   2.947  0.00  0.00     0.343 C 
BRANCH  35  36
ATOM     36  C34 XBV d           8.120  69.751   3.126  0.00  0.00     0.381 C 
ATOM     37  F35 XBV d           7.740  69.525   4.452  0.00  0.00    -0.213 F 
ATOM     38  F36 XBV d           7.652  71.013   2.824  0.00  0.00    -0.213 F 
ENDBRANCH  35  36
ENDBRANCH   4  35
TORSDOF 7
ENDMDL
MODEL 3
REMARK VINA RESULT:      -9.5      2.000      2.537
REMARK  7 active torsions:
REMARK  status: ('A' for Active; 'I' for Inactive)
REMARK    1  A    between atoms: C1_1  and  C6_6 
REMARK    2  A    between atoms: C7_7  and  C2_2 
REMARK    3  A    between atoms: N4_4  and  C33_33 
REMARK       I    between atoms: C6_6  and  N11_11 
REMARK       I    between atoms: N8_8  and  C7_7 
REMARK    4  A    between atoms: C19_19  and  N8_8 
REMARK    5  A    between atoms: N11_11  and  C12_12 
REMARK    6  A    between atoms: N25_25  and  C21_21 
REMARK    7  A    between atoms: C33_33  and  C34_34 
ROOT
ATOM      1  C1  XBV d           8.409  67.812   4.137  0.00  0.00     0.121 C 
ATOM      2  C2  XBV d           7.515  67.461   2.937  0.00  0.00     0.121 C 
ATOM      3  C3  XBV d           6.489  68.612   2.869  0.00  0.00     0.287 C 
ATOM      4  N4  XBV d           7.296  69.773   3.361  0.00  0.00     0.095 N 
ATOM      5  C5  XBV d           8.140  69.291   4.481  0.00  0.00     0.287 C 
ENDROOT
BRANCH   2   6
ATOM      6  C7  XBV d           6.834  66.129   3.169  0.00  0.00     0.229 C 
ATOM      7  N8  XBV d           7.634  65.099   3.119  0.00  0.00    -0.324 N 
ATOM      8  H   XBV d           8.627  65.287   2.978  0.00  0.00     0.169 HD
ATOM      9  O9  XBV d           5.647  66.027   3.441  0.00  0.00    -0.273 OA
BRANCH   7  10
ATOM     10  C19 XBV d           7.247  63.746   3.242  0.00  0.00     0.073 A 
ATOM     11  C20 XBV d           6.647  63.201   4.382  0.00  0.00     0.035 A 
ATOM     12  C23 XBV d           6.360  61.832   4.389  0.00  0.00     0.032 A 
ATOM     13  C21 XBV d           6.725  61.054   3.285  0.00  0.00     0.045 A 
ATOM     14  C22 XBV d           7.333  61.608   2.149  0.00  0.00     0.074 A 
ATOM     15  C24 XBV d           7.548  62.992   2.142  0.00  0.00     0.145 A 
ATOM     16  F32 XBV d           8.151  63.547   1.079  0.00  0.00    -0.204 F 
BRANCH  13  17
ATOM     17  N25 XBV d           6.467  59.652   3.230  0.00  0.00    -0.290 N 
ATOM     18  C26 XBV d           7.412  58.748   3.739  0.00  0.00     0.100 A 
ATOM     19  C29 XBV d           7.199  57.405   3.668  0.00  0.00     0.018 A 
ATOM     20  C27 XBV d           6.020  56.902   3.104  0.00  0.00     0.007 A 
ATOM     21  C28 XBV d           5.076  57.770   2.602  0.00  0.00     0.075 A 
ATOM     22  C30 XBV d           5.274  59.197   2.654  0.00  0.00     0.252 A 
ATOM     23  O31 XBV d           4.453  59.999   2.192  0.00  0.00    -0.268 OA
ENDBRANCH  13  17
ENDBRANCH   7  10
ENDBRANCH   2   6
BRANCH   1  24
ATOM     24  C6  XBV d           9.864  67.504   3.882  0.00  0.00     0.230 C 
ATOM     25  O10 XBV d          10.616  68.304   3.347  0.00  0.00    -0.273 OA
ATOM     26  N11 XBV d          10.309  66.332   4.389  0.00  0.00    -0.311 N 
ATOM     27  H   XBV d           9.662  65.843   5.008  0.00  0.00     0.170 HD
BRANCH  26  28
ATOM     28  C12 XBV d          11.534  65.703   4.179  0.00  0.00     0.129 A 
ATOM     29  N13 XBV d          12.441  65.684   5.170  0.00  0.00    -0.242 NA
ATOM     30  C16 XBV d          13.710  65.235   4.976  0.00  0.00     0.142 A 
ATOM     31  C14 XBV d          14.121  64.813   3.696  0.00  0.00     0.051 A 
ATOM     32  C15 XBV d          13.192  64.846   2.638  0.00  0.00     0.029 A 
ATOM     33 CL1  XBV d          15.758  64.331   3.379  0.00  0.00    -0.083 Cl
ATOM     34  C17 XBV d          11.897  65.312   2.882  0.00  0.00     0.052 A 
ENDBRANCH  26  28
ENDBRANCH   1  24
BRANCH   4  35
ATOM     35  C33 XBV d           6.424  70.870   3.812  0.00  0.00     0.343 C 
BRANCH  35  36
ATOM     36  C34 XBV d           6.990  72.235   3.416  0.00  0.00     0.381 C 
ATOM     37  F35 XBV d           7.181  73.076   4.516  0.00  0.00    -0.213 F 
ATOM     38  F36 XBV d           8.251  72.013   2.905  0.00  0.00    -0.213 F 
ENDBRANCH  35  36
ENDBRANCH   4  35
TORSDOF 7
ENDMDL
MODEL 4
REMARK VINA RESULT:      -9.1      1.657      2.105
REMARK  7 active torsions:
REMARK  status: ('A' for Active; 'I' for Inactive)
REMARK    1  A    between atoms: C1_1  and  C6_6 
REMARK    2  A    between atoms: C7_7  and  C2_2 
REMARK    3  A    between atoms: N4_4  and  C33_33 
REMARK       I    between atoms: C6_6  and  N11_11 
REMARK       I    between atoms: N8_8  and  C7_7 
REMARK    4  A    between atoms: C19_19  and  N8_8 
REMARK    5  A    between atoms: N11_11  and  C12_12 
REMARK    6  A    between atoms: N25_25  and  C21_21 
REMARK    7  A    between atoms: C33_33  and  C34_34 
ROOT
ATOM      1  C1  XBV d           9.321  67.513   3.516  0.00  0.00     0.121 C 
ATOM      2  C2  XBV d           8.847  66.654   2.333  0.00  0.00     0.121 C 
ATOM      3  C3  XBV d           7.915  67.585   1.527  0.00  0.00     0.287 C 
ATOM      4  N4  XBV d           8.545  68.923   1.756  0.00  0.00     0.095 N 
ATOM      5  C5  XBV d           8.981  68.978   3.173  0.00  0.00     0.287 C 
ENDROOT
BRANCH   2   6
ATOM      6  C7  XBV d           8.105  65.436   2.839  0.00  0.00     0.229 C 
ATOM      7  N8  XBV d           8.441  64.318   2.253  0.00  0.00    -0.324 N 
ATOM      8  H   XBV d           9.187  64.363   1.559  0.00  0.00     0.169 HD
ATOM      9  O9  XBV d           7.303  65.480   3.759  0.00  0.00    -0.273 OA
BRANCH   7  10
ATOM     10  C19 XBV d           7.863  63.053   2.495  0.00  0.00     0.073 A 
ATOM     11  C20 XBV d           6.807  62.828   3.386  0.00  0.00     0.035 A 
ATOM     12  C23 XBV d           6.363  61.515   3.568  0.00  0.00     0.032 A 
ATOM     13  C21 XBV d           7.015  60.476   2.897  0.00  0.00     0.045 A 
ATOM     14  C22 XBV d           8.077  60.709   2.011  0.00  0.00     0.074 A 
ATOM     15  C24 XBV d           8.458  62.040   1.796  0.00  0.00     0.145 A 
ATOM     16  F32 XBV d           9.487  62.293   0.974  0.00  0.00    -0.204 F 
BRANCH  13  17
ATOM     17  N25 XBV d           6.616  59.113   3.043  0.00  0.00    -0.290 N 
ATOM     18  C26 XBV d           7.404  58.233   3.800  0.00  0.00     0.100 A 
ATOM     19  C29 XBV d           7.057  56.922   3.926  0.00  0.00     0.018 A 
ATOM     20  C27 XBV d           5.895  56.433   3.317  0.00  0.00     0.007 A 
ATOM     21  C28 XBV d           5.104  57.281   2.573  0.00  0.00     0.075 A 
ATOM     22  C30 XBV d           5.446  58.671   2.413  0.00  0.00     0.252 A 
ATOM     23  O31 XBV d           4.766  59.450   1.733  0.00  0.00    -0.268 OA
ENDBRANCH  13  17
ENDBRANCH   7  10
ENDBRANCH   2   6
BRANCH   1  24
ATOM     24  C6  XBV d          10.775  67.289   3.846  0.00  0.00     0.230 C 
ATOM     25  O10 XBV d          11.624  68.151   3.674  0.00  0.00    -0.273 OA
ATOM     26  N11 XBV d          11.062  66.114   4.451  0.00  0.00    -0.311 N 
ATOM     27  H   XBV d          10.257  65.563   4.750  0.00  0.00     0.170 HD
BRANCH  26  28
ATOM     28  C12 XBV d          12.309  65.557   4.722  0.00  0.00     0.129 A 
ATOM     29  N13 XBV d          12.800  65.621   5.971  0.00  0.00    -0.242 NA
ATOM     30  C16 XBV d          14.074  65.245   6.264  0.00  0.00     0.142 A 
ATOM     31  C14 XBV d          14.937  64.816   5.236  0.00  0.00     0.051 A 
ATOM     32  C15 XBV d          14.448  64.761   3.916  0.00  0.00     0.029 A 
ATOM     33 CL1  XBV d          16.600  64.427   5.547  0.00  0.00    -0.083 Cl
ATOM     34  C17 XBV d          13.132  65.154   3.660  0.00  0.00     0.052 A 
ENDBRANCH  26  28
ENDBRANCH   1  24
BRANCH   4  35
ATOM     35  C33 XBV d           7.593  70.010   1.472  0.00  0.00     0.343 C 
BRANCH  35  36
ATOM     36  C34 XBV d           6.165  69.619   1.853  0.00  0.00     0.381 C 
ATOM     37  F35 XBV d           5.833  70.000   3.157  0.00  0.00    -0.213 F 
ATOM     38  F36 XBV d           5.320  70.342   1.038  0.00  0.00    -0.213 F 
ENDBRANCH  35  36
ENDBRANCH   4  35
TORSDOF 7
ENDMDL
MODEL 5
REMARK VINA RESULT:      -9.0      3.368      8.956
REMARK  7 active torsions:
REMARK  status: ('A' for Active; 'I' for Inactive)
REMARK    1  A    between atoms: C1_1  and  C6_6 
REMARK    2  A    between atoms: C7_7  and  C2_2 
REMARK    3  A    between atoms: N4_4  and  C33_33 
REMARK       I    between atoms: C6_6  and  N11_11 
REMARK       I    between atoms: N8_8  and  C7_7 
REMARK    4  A    between atoms: C19_19  and  N8_8 
REMARK    5  A    between atoms: N11_11  and  C12_12 
REMARK    6  A    between atoms: N25_25  and  C21_21 
REMARK    7  A    between atoms: C33_33  and  C34_34 
ROOT
ATOM      1  C1  XBV d          11.106  65.444   1.915  0.00  0.00     0.121 C 
ATOM      2  C2  XBV d           9.994  65.413   2.974  0.00  0.00     0.121 C 
ATOM      3  C3  XBV d           8.854  64.606   2.316  0.00  0.00     0.287 C 
ATOM      4  N4  XBV d           9.615  63.638   1.464  0.00  0.00     0.095 N 
ATOM      5  C5  XBV d          10.757  64.370   0.864  0.00  0.00     0.287 C 
ENDROOT
BRANCH   2   6
ATOM      6  C7  XBV d           9.551  66.822   3.305  0.00  0.00     0.229 C 
ATOM      7  N8  XBV d           9.393  67.595   2.264  0.00  0.00    -0.324 N 
ATOM      8  H   XBV d           9.533  67.174   1.346  0.00  0.00     0.169 HD
ATOM      9  O9  XBV d           9.303  67.193   4.442  0.00  0.00    -0.273 OA
BRANCH   7  10
ATOM     10  C19 XBV d           9.043  68.963   2.297  0.00  0.00     0.073 A 
ATOM     11  C20 XBV d           9.958  70.003   2.495  0.00  0.00     0.035 A 
ATOM     12  C23 XBV d           9.470  71.312   2.556  0.00  0.00     0.032 A 
ATOM     13  C21 XBV d           8.091  71.529   2.468  0.00  0.00     0.045 A 
ATOM     14  C22 XBV d           7.180  70.480   2.277  0.00  0.00     0.074 A 
ATOM     15  C24 XBV d           7.702  69.186   2.152  0.00  0.00     0.145 A 
ATOM     16  F32 XBV d           6.854  68.159   1.995  0.00  0.00    -0.204 F 
BRANCH  13  17
ATOM     17  N25 XBV d           7.526  72.838   2.528  0.00  0.00    -0.290 N 
ATOM     18  C26 XBV d           6.988  73.311   3.736  0.00  0.00     0.100 A 
ATOM     19  C29 XBV d           6.417  74.545   3.807  0.00  0.00     0.018 A 
ATOM     20  C27 XBV d           6.374  75.374   2.679  0.00  0.00     0.007 A 
ATOM     21  C28 XBV d           6.899  74.933   1.484  0.00  0.00     0.075 A 
ATOM     22  C30 XBV d           7.504  73.629   1.373  0.00  0.00     0.252 A 
ATOM     23  O31 XBV d           7.964  73.199   0.308  0.00  0.00    -0.268 OA
ENDBRANCH  13  17
ENDBRANCH   7  10
ENDBRANCH   2   6
BRANCH   1  24
ATOM     24  C6  XBV d          12.480  65.281   2.515  0.00  0.00     0.230 C 
ATOM     25  O10 XBV d          13.491  65.237   1.830  0.00  0.00    -0.273 OA
ATOM     26  N11 XBV d          12.533  65.303   3.866  0.00  0.00    -0.311 N 
ATOM     27  H   XBV d          11.668  65.566   4.338  0.00  0.00     0.170 HD
BRANCH  26  28
ATOM     28  C12 XBV d          13.611  65.014   4.700  0.00  0.00     0.129 A 
ATOM     29  N13 XBV d          14.556  64.157   4.279  0.00  0.00    -0.242 NA
ATOM     30  C16 XBV d          15.539  63.709   5.104  0.00  0.00     0.142 A 
ATOM     31  C14 XBV d          15.562  64.106   6.455  0.00  0.00     0.051 A 
ATOM     32  C15 XBV d          14.568  64.987   6.923  0.00  0.00     0.029 A 
ATOM     33 CL1  XBV d          16.737  63.477   7.568  0.00  0.00    -0.083 Cl
ATOM     34  C17 XBV d          13.577  65.426   6.040  0.00  0.00     0.052 A 
ENDBRANCH  26  28
ENDBRANCH   1  24
BRANCH   4  35
ATOM     35  C33 XBV d           8.756  63.076   0.409  0.00  0.00     0.343 C 
BRANCH  35  36
ATOM     36  C34 XBV d           7.767  62.056   0.976  0.00  0.00     0.381 C 
ATOM     37  F35 XBV d           6.986  61.457  -0.017  0.00  0.00    -0.213 F 
ATOM     38  F36 XBV d           8.513  61.032   1.518  0.00  0.00    -0.213 F 
ENDBRANCH  35  36
ENDBRANCH   4  35
TORSDOF 7
ENDMDL
MODEL 6
REMARK VINA RESULT:      -8.5      3.925      9.748
REMARK  7 active torsions:
REMARK  status: ('A' for Active; 'I' for Inactive)
REMARK    1  A    between atoms: C1_1  and  C6_6 
REMARK    2  A    between atoms: C7_7  and  C2_2 
REMARK    3  A    between atoms: N4_4  and  C33_33 
REMARK       I    between atoms: C6_6  and  N11_11 
REMARK       I    between atoms: N8_8  and  C7_7 
REMARK    4  A    between atoms: C19_19  and  N8_8 
REMARK    5  A    between atoms: N11_11  and  C12_12 
REMARK    6  A    between atoms: N25_25  and  C21_21 
REMARK    7  A    between atoms: C33_33  and  C34_34 
ROOT
ATOM      1  C1  XBV d           9.384  64.222   2.313  0.00  0.00     0.121 C 
ATOM      2  C2  XBV d           9.400  64.804   0.891  0.00  0.00     0.121 C 
ATOM      3  C3  XBV d          10.898  64.932   0.541  0.00  0.00     0.287 C 
ATOM      4  N4  XBV d          11.487  63.772   1.281  0.00  0.00     0.095 N 
ATOM      5  C5  XBV d          10.802  63.683   2.594  0.00  0.00     0.287 C 
ENDROOT
BRANCH   2   6
ATOM      6  C7  XBV d           8.713  66.153   0.873  0.00  0.00     0.229 C 
ATOM      7  N8  XBV d           8.990  66.912   1.898  0.00  0.00    -0.324 N 
ATOM      8  H   XBV d           9.664  66.553   2.575  0.00  0.00     0.169 HD
ATOM      9  O9  XBV d           8.006  66.528  -0.050  0.00  0.00    -0.273 OA
BRANCH   7  10
ATOM     10  C19 XBV d           8.441  68.187   2.154  0.00  0.00     0.073 A 
ATOM     11  C20 XBV d           7.109  68.534   1.903  0.00  0.00     0.035 A 
ATOM     12  C23 XBV d           6.708  69.850   2.156  0.00  0.00     0.032 A 
ATOM     13  C21 XBV d           7.656  70.777   2.601  0.00  0.00     0.045 A 
ATOM     14  C22 XBV d           8.991  70.423   2.844  0.00  0.00     0.074 A 
ATOM     15  C24 XBV d           9.350  69.083   2.645  0.00  0.00     0.145 A 
ATOM     16  F32 XBV d          10.625  68.719   2.845  0.00  0.00    -0.204 F 
BRANCH  13  17
ATOM     17  N25 XBV d           7.315  72.136   2.872  0.00  0.00    -0.290 N 
ATOM     18  C26 XBV d           6.716  72.473   4.096  0.00  0.00     0.100 A 
ATOM     19  C29 XBV d           6.355  73.759   4.363  0.00  0.00     0.018 A 
ATOM     20  C27 XBV d           6.594  74.772   3.426  0.00  0.00     0.007 A 
ATOM     21  C28 XBV d           7.184  74.465   2.220  0.00  0.00     0.075 A 
ATOM     22  C30 XBV d           7.571  73.114   1.903  0.00  0.00     0.252 A 
ATOM     23  O31 XBV d           8.083  72.805   0.820  0.00  0.00    -0.268 OA
ENDBRANCH  13  17
ENDBRANCH   7  10
ENDBRANCH   2   6
BRANCH   1  24
ATOM     24  C6  XBV d           8.296  63.196   2.505  0.00  0.00     0.230 C 
ATOM     25  O10 XBV d           7.316  63.406   3.204  0.00  0.00    -0.273 OA
ATOM     26  N11 XBV d           8.416  62.072   1.762  0.00  0.00    -0.311 N 
ATOM     27  H   XBV d           9.145  62.090   1.048  0.00  0.00     0.170 HD
BRANCH  26  28
ATOM     28  C12 XBV d           7.677  60.894   1.840  0.00  0.00     0.129 A 
ATOM     29  N13 XBV d           6.528  60.792   1.150  0.00  0.00    -0.242 NA
ATOM     30  C16 XBV d           5.682  59.740   1.313  0.00  0.00     0.142 A 
ATOM     31  C14 XBV d           5.976  58.738   2.259  0.00  0.00     0.051 A 
ATOM     32  C15 XBV d           7.165  58.837   3.008  0.00  0.00     0.029 A 
ATOM     33 CL1  XBV d           4.875  57.434   2.573  0.00  0.00    -0.083 Cl
ATOM     34  C17 XBV d           8.007  59.934   2.807  0.00  0.00     0.052 A 
ENDBRANCH  26  28
ENDBRANCH   1  24
BRANCH   4  35
ATOM     35  C33 XBV d          12.936  63.948   1.471  0.00  0.00     0.343 C 
BRANCH  35  36
ATOM     36  C34 XBV d          13.263  64.410   2.892  0.00  0.00     0.381 C 
ATOM     37  F35 XBV d          14.535  64.006   3.309  0.00  0.00    -0.213 F 
ATOM     38  F36 XBV d          13.311  65.788   2.864  0.00  0.00    -0.213 F 
ENDBRANCH  35  36
ENDBRANCH   4  35
TORSDOF 7
ENDMDL
