MODEL 1
REMARK VINA RESULT:      -6.5      0.000      0.000
REMARK  5 active torsions:
REMARK  status: ('A' for Active; 'I' for Inactive)
REMARK    1  A    between atoms: C1_1  and  O7_7 
REMARK    2  A    between atoms: C2_2  and  O16_14 
REMARK    3  A    between atoms: C14_12  and  C4_4 
REMARK    4  A    between atoms: N3_15  and  C10_9 
REMARK    5  A    between atoms: N3_15  and  C12_10 
REMARK       I    between atoms: C14_12  and  N3_15 
ROOT
ATOM      1  C1  MOL d          64.584  33.034  27.488  0.00  0.00     0.099 A 
ATOM      2  C2  MOL d          65.704  33.086  26.652  0.00  0.00     0.102 A 
ATOM      3  C3  MOL d          65.684  33.898  25.542  0.00  0.00     0.056 A 
ATOM      4  C4  MOL d          64.566  34.653  25.218  0.00  0.00     0.035 A 
ATOM      5  C5  MOL d          63.441  34.599  26.047  0.00  0.00     0.020 A 
ATOM      6  C6  MOL d          63.449  33.795  27.172  0.00  0.00     0.040 A 
ENDROOT
BRANCH   4   7
ATOM      7  C14 MOL d          64.584  35.500  23.991  0.00  0.00     0.253 C 
ATOM      8  O15 MOL d          64.068  35.092  22.975  0.00  0.00    -0.267 OA
ATOM      9  N3  MOL d          65.239  36.696  24.062  0.00  0.00    -0.349 N 
BRANCH   9  10
ATOM     10  C10 MOL d          65.504  37.345  25.362  0.00  0.00     0.121 C 
ATOM     11  C9  MOL d          65.098  38.802  25.373  0.00  0.00     0.026 C 
ENDBRANCH   9  10
BRANCH   9  12
ATOM     12  C12 MOL d          65.525  37.498  22.872  0.00  0.00     0.121 C 
ATOM     13  C13 MOL d          67.013  37.552  22.574  0.00  0.00     0.026 C 
ENDBRANCH   9  12
ENDBRANCH   4   7
BRANCH   2  14
ATOM     14  O16 MOL d          66.784  32.324  27.017  0.00  0.00    -0.353 OA
ATOM     15  C15 MOL d          67.027  31.107  26.263  0.00  0.00     0.210 C 
ENDBRANCH   2  14
BRANCH   1  16
ATOM     16  O7  MOL d          64.615  32.252  28.605  0.00  0.00    -0.358 OA
ATOM     17  H   MOL d          65.513  31.947  28.755  0.00  0.00     0.217 HD
ENDBRANCH   1  16
TORSDOF 5
ENDMDL
MODEL 2
REMARK VINA RESULT:      -6.3      0.970      2.035
REMARK  5 active torsions:
REMARK  status: ('A' for Active; 'I' for Inactive)
REMARK    1  A    between atoms: C1_1  and  O7_7 
REMARK    2  A    between atoms: C2_2  and  O16_14 
REMARK    3  A    between atoms: C14_12  and  C4_4 
REMARK    4  A    between atoms: N3_15  and  C10_9 
REMARK    5  A    between atoms: N3_15  and  C12_10 
REMARK       I    between atoms: C14_12  and  N3_15 
ROOT
ATOM      1  C1  MOL d          65.450  33.081  27.654  0.00  0.00     0.099 A 
ATOM      2  C2  MOL d          64.153  33.518  27.368  0.00  0.00     0.102 A 
ATOM      3  C3  MOL d          63.921  34.259  26.233  0.00  0.00     0.056 A 
ATOM      4  C4  MOL d          64.953  34.605  25.372  0.00  0.00     0.035 A 
ATOM      5  C5  MOL d          66.254  34.177  25.657  0.00  0.00     0.020 A 
ATOM      6  C6  MOL d          66.501  33.422  26.789  0.00  0.00     0.040 A 
ENDROOT
BRANCH   4   7
ATOM      7  C14 MOL d          64.656  35.431  24.166  0.00  0.00     0.253 C 
ATOM      8  O15 MOL d          64.105  34.925  23.216  0.00  0.00    -0.267 OA
ATOM      9  N3  MOL d          65.077  36.730  24.174  0.00  0.00    -0.349 N 
BRANCH   9  10
ATOM     10  C10 MOL d          65.374  37.428  25.442  0.00  0.00     0.121 C 
ATOM     11  C9  MOL d          65.075  38.909  25.369  0.00  0.00     0.026 C 
ENDBRANCH   9  10
BRANCH   9  12
ATOM     12  C12 MOL d          65.056  37.562  22.971  0.00  0.00     0.121 C 
ATOM     13  C13 MOL d          66.400  37.564  22.265  0.00  0.00     0.026 C 
ENDBRANCH   9  12
ENDBRANCH   4   7
BRANCH   2  14
ATOM     14  O16 MOL d          63.168  33.147  28.247  0.00  0.00    -0.353 OA
ATOM     15  C15 MOL d          62.627  31.806  28.113  0.00  0.00     0.210 C 
ENDBRANCH   2  14
BRANCH   1  16
ATOM     16  O7  MOL d          65.675  32.321  28.762  0.00  0.00    -0.358 OA
ATOM     17  H   MOL d          66.450  31.772  28.621  0.00  0.00     0.217 HD
ENDBRANCH   1  16
TORSDOF 5
ENDMDL
MODEL 3
REMARK VINA RESULT:      -6.1      2.130      5.511
REMARK  5 active torsions:
REMARK  status: ('A' for Active; 'I' for Inactive)
REMARK    1  A    between atoms: C1_1  and  O7_7 
REMARK    2  A    between atoms: C2_2  and  O16_14 
REMARK    3  A    between atoms: C14_12  and  C4_4 
REMARK    4  A    between atoms: N3_15  and  C10_9 
REMARK    5  A    between atoms: N3_15  and  C12_10 
REMARK       I    between atoms: C14_12  and  N3_15 
ROOT
ATOM      1  C1  MOL d          65.522  38.096  24.967  0.00  0.00     0.099 A 
ATOM      2  C2  MOL d          65.472  36.861  24.311  0.00  0.00     0.102 A 
ATOM      3  C3  MOL d          65.886  35.727  24.970  0.00  0.00     0.056 A 
ATOM      4  C4  MOL d          66.375  35.782  26.267  0.00  0.00     0.035 A 
ATOM      5  C5  MOL d          66.433  37.015  26.925  0.00  0.00     0.020 A 
ATOM      6  C6  MOL d          66.012  38.163  26.280  0.00  0.00     0.040 A 
ENDROOT
BRANCH   4   7
ATOM      7  C14 MOL d          66.834  34.528  26.932  0.00  0.00     0.253 C 
ATOM      8  O15 MOL d          67.970  34.449  27.340  0.00  0.00    -0.267 OA
ATOM      9  N3  MOL d          65.947  33.492  27.002  0.00  0.00    -0.349 N 
BRANCH   9  10
ATOM     10  C10 MOL d          64.494  33.721  26.873  0.00  0.00     0.121 C 
ATOM     11  C9  MOL d          63.690  32.882  27.841  0.00  0.00     0.026 C 
ENDBRANCH   9  10
BRANCH   9  12
ATOM     12  C12 MOL d          66.353  32.148  27.412  0.00  0.00     0.121 C 
ATOM     13  C13 MOL d          66.842  31.323  26.235  0.00  0.00     0.026 C 
ENDBRANCH   9  12
ENDBRANCH   4   7
BRANCH   2  14
ATOM     14  O16 MOL d          64.978  36.859  23.033  0.00  0.00    -0.353 OA
ATOM     15  C15 MOL d          63.955  35.878  22.715  0.00  0.00     0.210 C 
ENDBRANCH   2  14
BRANCH   1  16
ATOM     16  O7  MOL d          65.084  39.215  24.324  0.00  0.00    -0.358 OA
ATOM     17  H   MOL d          64.339  38.989  23.762  0.00  0.00     0.217 HD
ENDBRANCH   1  16
TORSDOF 5
ENDMDL
MODEL 4
REMARK VINA RESULT:      -5.9      2.503      5.683
REMARK  5 active torsions:
REMARK  status: ('A' for Active; 'I' for Inactive)
REMARK    1  A    between atoms: C1_1  and  O7_7 
REMARK    2  A    between atoms: C2_2  and  O16_14 
REMARK    3  A    between atoms: C14_12  and  C4_4 
REMARK    4  A    between atoms: N3_15  and  C10_9 
REMARK    5  A    between atoms: N3_15  and  C12_10 
REMARK       I    between atoms: C14_12  and  N3_15 
ROOT
ATOM      1  C1  MOL d          67.469  37.452  24.993  0.00  0.00     0.099 A 
ATOM      2  C2  MOL d          66.656  36.771  24.082  0.00  0.00     0.102 A 
ATOM      3  C3  MOL d          65.759  35.835  24.542  0.00  0.00     0.056 A 
ATOM      4  C4  MOL d          65.658  35.533  25.892  0.00  0.00     0.035 A 
ATOM      5  C5  MOL d          66.474  36.206  26.807  0.00  0.00     0.020 A 
ATOM      6  C6  MOL d          67.374  37.157  26.362  0.00  0.00     0.040 A 
ENDROOT
BRANCH   4   7
ATOM      7  C14 MOL d          64.687  34.493  26.340  0.00  0.00     0.253 C 
ATOM      8  O15 MOL d          63.502  34.665  26.164  0.00  0.00    -0.267 OA
ATOM      9  N3  MOL d          65.189  33.400  26.987  0.00  0.00    -0.349 N 
BRANCH   9  10
ATOM     10  C10 MOL d          66.608  33.015  26.844  0.00  0.00     0.121 C 
ATOM     11  C9  MOL d          66.773  31.585  26.377  0.00  0.00     0.026 C 
ENDBRANCH   9  10
BRANCH   9  12
ATOM     12  C12 MOL d          64.327  32.440  27.675  0.00  0.00     0.121 C 
ATOM     13  C13 MOL d          64.630  32.375  29.161  0.00  0.00     0.026 C 
ENDBRANCH   9  12
ENDBRANCH   4   7
BRANCH   2  14
ATOM     14  O16 MOL d          66.792  37.108  22.760  0.00  0.00    -0.353 OA
ATOM     15  C15 MOL d          65.740  37.915  22.167  0.00  0.00     0.210 C 
ENDBRANCH   2  14
BRANCH   1  16
ATOM     16  O7  MOL d          68.337  38.401  24.541  0.00  0.00    -0.358 OA
ATOM     17  H   MOL d          67.846  39.094  24.092  0.00  0.00     0.217 HD
ENDBRANCH   1  16
TORSDOF 5
ENDMDL
MODEL 5
REMARK VINA RESULT:      -5.6      2.104      3.422
REMARK  5 active torsions:
REMARK  status: ('A' for Active; 'I' for Inactive)
REMARK    1  A    between atoms: C1_1  and  O7_7 
REMARK    2  A    between atoms: C2_2  and  O16_14 
REMARK    3  A    between atoms: C14_12  and  C4_4 
REMARK    4  A    between atoms: N3_15  and  C10_9 
REMARK    5  A    between atoms: N3_15  and  C12_10 
REMARK       I    between atoms: C14_12  and  N3_15 
ROOT
ATOM      1  C1  MOL d          66.638  32.624  26.920  0.00  0.00     0.099 A 
ATOM      2  C2  MOL d          65.517  33.452  26.803  0.00  0.00     0.102 A 
ATOM      3  C3  MOL d          65.687  34.812  26.684  0.00  0.00     0.056 A 
ATOM      4  C4  MOL d          66.950  35.387  26.699  0.00  0.00     0.035 A 
ATOM      5  C5  MOL d          68.075  34.564  26.823  0.00  0.00     0.020 A 
ATOM      6  C6  MOL d          67.920  33.194  26.934  0.00  0.00     0.040 A 
ENDROOT
BRANCH   4   7
ATOM      7  C14 MOL d          67.083  36.868  26.590  0.00  0.00     0.253 C 
ATOM      8  O15 MOL d          67.429  37.510  27.556  0.00  0.00    -0.267 OA
ATOM      9  N3  MOL d          66.751  37.444  25.397  0.00  0.00    -0.349 N 
BRANCH   9  10
ATOM     10  C10 MOL d          66.721  36.652  24.150  0.00  0.00     0.121 C 
ATOM     11  C9  MOL d          67.518  37.297  23.038  0.00  0.00     0.026 C 
ENDBRANCH   9  10
BRANCH   9  12
ATOM     12  C12 MOL d          66.614  38.892  25.244  0.00  0.00     0.121 C 
ATOM     13  C13 MOL d          65.160  39.326  25.266  0.00  0.00     0.026 C 
ENDBRANCH   9  12
ENDBRANCH   4   7
BRANCH   2  14
ATOM     14  O16 MOL d          64.292  32.836  26.790  0.00  0.00    -0.353 OA
ATOM     15  C15 MOL d          63.492  32.917  27.999  0.00  0.00     0.210 C 
ENDBRANCH   2  14
BRANCH   1  16
ATOM     16  O7  MOL d          66.471  31.275  27.008  0.00  0.00    -0.358 OA
ATOM     17  H   MOL d          65.858  30.984  26.328  0.00  0.00     0.217 HD
ENDBRANCH   1  16
TORSDOF 5
ENDMDL
MODEL 6
REMARK VINA RESULT:      -5.5      2.759      5.722
REMARK  5 active torsions:
REMARK  status: ('A' for Active; 'I' for Inactive)
REMARK    1  A    between atoms: C1_1  and  O7_7 
REMARK    2  A    between atoms: C2_2  and  O16_14 
REMARK    3  A    between atoms: C14_12  and  C4_4 
REMARK    4  A    between atoms: N3_15  and  C10_9 
REMARK    5  A    between atoms: N3_15  and  C12_10 
REMARK       I    between atoms: C14_12  and  N3_15 
ROOT
ATOM      1  C1  MOL d          66.841  39.206  25.473  0.00  0.00     0.099 A 
ATOM      2  C2  MOL d          67.196  38.416  24.374  0.00  0.00     0.102 A 
ATOM      3  C3  MOL d          66.793  37.101  24.327  0.00  0.00     0.056 A 
ATOM      4  C4  MOL d          66.062  36.531  25.358  0.00  0.00     0.035 A 
ATOM      5  C5  MOL d          65.711  37.315  26.463  0.00  0.00     0.020 A 
ATOM      6  C6  MOL d          66.099  38.641  26.521  0.00  0.00     0.040 A 
ENDROOT
BRANCH   4   7
ATOM      7  C14 MOL d          65.669  35.095  25.273  0.00  0.00     0.253 C 
ATOM      8  O15 MOL d          64.831  34.751  24.471  0.00  0.00    -0.267 OA
ATOM      9  N3  MOL d          66.250  34.231  26.156  0.00  0.00    -0.349 N 
BRANCH   9  10
ATOM     10  C10 MOL d          67.519  34.568  26.832  0.00  0.00     0.121 C 
ATOM     11  C9  MOL d          68.420  33.365  27.001  0.00  0.00     0.026 C 
ENDBRANCH   9  10
BRANCH   9  12
ATOM     12  C12 MOL d          65.775  32.857  26.326  0.00  0.00     0.121 C 
ATOM     13  C13 MOL d          64.773  32.744  27.461  0.00  0.00     0.026 C 
ENDBRANCH   9  12
ENDBRANCH   4   7
BRANCH   2  14
ATOM     14  O16 MOL d          67.915  39.027  23.380  0.00  0.00    -0.353 OA
ATOM     15  C15 MOL d          67.693  38.569  22.020  0.00  0.00     0.210 C 
ENDBRANCH   2  14
BRANCH   1  16
ATOM     16  O7  MOL d          67.214  40.517  25.506  0.00  0.00    -0.358 OA
ATOM     17  H   MOL d          67.079  40.909  24.639  0.00  0.00     0.217 HD
ENDBRANCH   1  16
TORSDOF 5
ENDMDL
MODEL 7
REMARK VINA RESULT:      -5.3      2.728      4.601
REMARK  5 active torsions:
REMARK  status: ('A' for Active; 'I' for Inactive)
REMARK    1  A    between atoms: C1_1  and  O7_7 
REMARK    2  A    between atoms: C2_2  and  O16_14 
REMARK    3  A    between atoms: C14_12  and  C4_4 
REMARK    4  A    between atoms: N3_15  and  C10_9 
REMARK    5  A    between atoms: N3_15  and  C12_10 
REMARK       I    between atoms: C14_12  and  N3_15 
ROOT
ATOM      1  C1  MOL d          64.657  35.851  23.512  0.00  0.00     0.099 A 
ATOM      2  C2  MOL d          64.894  35.794  24.889  0.00  0.00     0.102 A 
ATOM      3  C3  MOL d          65.385  36.902  25.540  0.00  0.00     0.056 A 
ATOM      4  C4  MOL d          65.674  38.073  24.855  0.00  0.00     0.035 A 
ATOM      5  C5  MOL d          65.446  38.134  23.476  0.00  0.00     0.020 A 
ATOM      6  C6  MOL d          64.944  37.031  22.809  0.00  0.00     0.040 A 
ENDROOT
BRANCH   4   7
ATOM      7  C14 MOL d          66.228  39.241  25.599  0.00  0.00     0.253 C 
ATOM      8  O15 MOL d          65.541  40.223  25.768  0.00  0.00    -0.267 OA
ATOM      9  N3  MOL d          67.526  39.163  26.017  0.00  0.00    -0.349 N 
BRANCH   9  10
ATOM     10  C10 MOL d          68.204  37.859  26.161  0.00  0.00     0.121 C 
ATOM     11  C9  MOL d          68.362  37.448  27.608  0.00  0.00     0.026 C 
ENDBRANCH   9  10
BRANCH   9  12
ATOM     12  C12 MOL d          68.244  40.324  26.542  0.00  0.00     0.121 C 
ATOM     13  C13 MOL d          68.978  41.075  25.445  0.00  0.00     0.026 C 
ENDBRANCH   9  12
ENDBRANCH   4   7
BRANCH   2  14
ATOM     14  O16 MOL d          64.589  34.616  25.521  0.00  0.00    -0.353 OA
ATOM     15  C15 MOL d          63.376  34.583  26.319  0.00  0.00     0.210 C 
ENDBRANCH   2  14
BRANCH   1  16
ATOM     16  O7  MOL d          64.143  34.763  22.873  0.00  0.00    -0.358 OA
ATOM     17  H   MOL d          64.114  34.020  23.481  0.00  0.00     0.217 HD
ENDBRANCH   1  16
TORSDOF 5
ENDMDL
MODEL 8
REMARK VINA RESULT:      -5.3      3.047      5.103
REMARK  5 active torsions:
REMARK  status: ('A' for Active; 'I' for Inactive)
REMARK    1  A    between atoms: C1_1  and  O7_7 
REMARK    2  A    between atoms: C2_2  and  O16_14 
REMARK    3  A    between atoms: C14_12  and  C4_4 
REMARK    4  A    between atoms: N3_15  and  C10_9 
REMARK    5  A    between atoms: N3_15  and  C12_10 
REMARK       I    between atoms: C14_12  and  N3_15 
ROOT
ATOM      1  C1  MOL d          64.448  35.516  23.847  0.00  0.00     0.099 A 
ATOM      2  C2  MOL d          65.145  36.702  23.590  0.00  0.00     0.102 A 
ATOM      3  C3  MOL d          65.799  37.340  24.619  0.00  0.00     0.056 A 
ATOM      4  C4  MOL d          65.764  36.846  25.915  0.00  0.00     0.035 A 
ATOM      5  C5  MOL d          65.062  35.664  26.178  0.00  0.00     0.020 A 
ATOM      6  C6  MOL d          64.408  35.006  25.153  0.00  0.00     0.040 A 
ENDROOT
BRANCH   4   7
ATOM      7  C14 MOL d          66.468  37.586  27.001  0.00  0.00     0.253 C 
ATOM      8  O15 MOL d          65.905  38.494  27.569  0.00  0.00    -0.267 OA
ATOM      9  N3  MOL d          67.758  37.229  27.272  0.00  0.00    -0.349 N 
BRANCH   9  10
ATOM     10  C10 MOL d          68.283  35.907  26.874  0.00  0.00     0.121 C 
ATOM     11  C9  MOL d          69.132  35.275  27.955  0.00  0.00     0.026 C 
ENDBRANCH   9  10
BRANCH   9  12
ATOM     12  C12 MOL d          68.620  38.029  28.141  0.00  0.00     0.121 C 
ATOM     13  C13 MOL d          69.329  39.130  27.372  0.00  0.00     0.026 C 
ENDBRANCH   9  12
ENDBRANCH   4   7
BRANCH   2  14
ATOM     14  O16 MOL d          65.152  37.147  22.294  0.00  0.00    -0.353 OA
ATOM     15  C15 MOL d          66.091  38.202  21.957  0.00  0.00     0.210 C 
ENDBRANCH   2  14
BRANCH   1  16
ATOM     16  O7  MOL d          63.826  34.868  22.822  0.00  0.00    -0.358 OA
ATOM     17  H   MOL d          64.312  34.068  22.610  0.00  0.00     0.217 HD
ENDBRANCH   1  16
TORSDOF 5
ENDMDL
MODEL 9
REMARK VINA RESULT:      -5.2      1.882      2.449
REMARK  5 active torsions:
REMARK  status: ('A' for Active; 'I' for Inactive)
REMARK    1  A    between atoms: C1_1  and  O7_7 
REMARK    2  A    between atoms: C2_2  and  O16_14 
REMARK    3  A    between atoms: C14_12  and  C4_4 
REMARK    4  A    between atoms: N3_15  and  C10_9 
REMARK    5  A    between atoms: N3_15  and  C12_10 
REMARK       I    between atoms: C14_12  and  N3_15 
ROOT
ATOM      1  C1  MOL d          64.343  33.424  26.884  0.00  0.00     0.099 A 
ATOM      2  C2  MOL d          65.714  33.153  26.941  0.00  0.00     0.102 A 
ATOM      3  C3  MOL d          66.616  34.153  26.656  0.00  0.00     0.056 A 
ATOM      4  C4  MOL d          66.195  35.423  26.288  0.00  0.00     0.035 A 
ATOM      5  C5  MOL d          64.824  35.697  26.222  0.00  0.00     0.020 A 
ATOM      6  C6  MOL d          63.906  34.705  26.516  0.00  0.00     0.040 A 
ENDROOT
BRANCH   4   7
ATOM      7  C14 MOL d          67.209  36.467  25.965  0.00  0.00     0.253 C 
ATOM      8  O15 MOL d          68.100  36.698  26.750  0.00  0.00    -0.267 OA
ATOM      9  N3  MOL d          67.048  37.161  24.800  0.00  0.00    -0.349 N 
BRANCH   9  10
ATOM     10  C10 MOL d          66.228  36.620  23.697  0.00  0.00     0.121 C 
ATOM     11  C9  MOL d          65.319  37.665  23.088  0.00  0.00     0.026 C 
ENDBRANCH   9  10
BRANCH   9  12
ATOM     12  C12 MOL d          67.833  38.356  24.492  0.00  0.00     0.121 C 
ATOM     13  C13 MOL d          67.447  39.527  25.379  0.00  0.00     0.026 C 
ENDBRANCH   9  12
ENDBRANCH   4   7
BRANCH   2  14
ATOM     14  O16 MOL d          66.079  31.885  27.312  0.00  0.00    -0.353 OA
ATOM     15  C15 MOL d          66.784  31.080  26.330  0.00  0.00     0.210 C 
ENDBRANCH   2  14
BRANCH   1  16
ATOM     16  O7  MOL d          63.451  32.442  27.196  0.00  0.00    -0.358 OA
ATOM     17  H   MOL d          63.680  32.062  28.047  0.00  0.00     0.217 HD
ENDBRANCH   1  16
TORSDOF 5
ENDMDL
MODEL 10
REMARK VINA RESULT:      -5.1      2.749      4.539
REMARK  5 active torsions:
REMARK  status: ('A' for Active; 'I' for Inactive)
REMARK    1  A    between atoms: C1_1  and  O7_7 
REMARK    2  A    between atoms: C2_2  and  O16_14 
REMARK    3  A    between atoms: C14_12  and  C4_4 
REMARK    4  A    between atoms: N3_15  and  C10_9 
REMARK    5  A    between atoms: N3_15  and  C12_10 
REMARK       I    between atoms: C14_12  and  N3_15 
ROOT
ATOM      1  C1  MOL d          64.738  35.593  24.034  0.00  0.00     0.099 A 
ATOM      2  C2  MOL d          64.615  35.257  25.386  0.00  0.00     0.102 A 
ATOM      3  C3  MOL d          65.535  35.737  26.290  0.00  0.00     0.056 A 
ATOM      4  C4  MOL d          66.599  36.530  25.887  0.00  0.00     0.035 A 
ATOM      5  C5  MOL d          66.731  36.862  24.534  0.00  0.00     0.020 A 
ATOM      6  C6  MOL d          65.809  36.396  23.615  0.00  0.00     0.040 A 
ENDROOT
BRANCH   4   7
ATOM      7  C14 MOL d          67.584  37.006  26.901  0.00  0.00     0.253 C 
ATOM      8  O15 MOL d          68.542  36.319  27.172  0.00  0.00    -0.267 OA
ATOM      9  N3  MOL d          67.323  38.194  27.522  0.00  0.00    -0.349 N 
BRANCH   9  10
ATOM     10  C10 MOL d          66.407  39.184  26.921  0.00  0.00     0.121 C 
ATOM     11  C9  MOL d          67.137  40.218  26.093  0.00  0.00     0.026 C 
ENDBRANCH   9  10
BRANCH   9  12
ATOM     12  C12 MOL d          68.082  38.644  28.689  0.00  0.00     0.121 C 
ATOM     13  C13 MOL d          69.454  39.165  28.301  0.00  0.00     0.026 C 
ENDBRANCH   9  12
ENDBRANCH   4   7
BRANCH   2  14
ATOM     14  O16 MOL d          63.545  34.475  25.734  0.00  0.00    -0.353 OA
ATOM     15  C15 MOL d          63.635  33.741  26.984  0.00  0.00     0.210 C 
ENDBRANCH   2  14
BRANCH   1  16
ATOM     16  O7  MOL d          63.810  35.143  23.143  0.00  0.00    -0.358 OA
ATOM     17  H   MOL d          63.951  35.568  22.293  0.00  0.00     0.217 HD
ENDBRANCH   1  16
TORSDOF 5
ENDMDL
