MODEL 1
REMARK VINA RESULT:      -8.9      0.000      0.000
REMARK  14 active torsions:
REMARK  status: ('A' for Active; 'I' for Inactive)
REMARK    1  A    between atoms: CBD_3  and  OAI_4 
REMARK    2  A    between atoms: CBF_7  and  CAV_8 
REMARK    3  A    between atoms: CAV_8  and  CBI_9 
REMARK    4  A    between atoms: CBI_9  and  PBK_10 
REMARK    5  A    between atoms: CBI_9  and  NAY_14 
REMARK       I    between atoms: NAY_14  and  C_15 
REMARK    6  A    between atoms: C_15  and  CA_17 
REMARK    7  A    between atoms: CA_17  and  N_18 
REMARK    8  A    between atoms: CA_17  and  CB_30 
REMARK       I    between atoms: N_18  and  CBB_19 
REMARK    9  A    between atoms: CBB_19  and  CBJ_21 
REMARK   10  A    between atoms: CBJ_21  and  CBG_22 
REMARK   11  A    between atoms: CBJ_21  and  NAX_26 
REMARK   12  A    between atoms: CBG_22  and  CAT_24 
REMARK       I    between atoms: NAX_26  and  CAZ_27 
REMARK   13  A    between atoms: CB_30  and  CG_31 
REMARK   14  A    between atoms: CZ_34  and  OH_35 
ROOT
ATOM      1  CA  K26 d          -9.522  23.161 -13.580  0.00  0.00     0.180 C 
ENDROOT
BRANCH   1   2
ATOM      2  C   K26 d         -10.485  22.813 -12.442  0.00  0.00     0.241 C 
ATOM      3  NAY K26 d         -11.121  23.853 -11.896  0.00  0.00    -0.342 N 
ATOM      4  H   K26 d         -11.000  24.777 -12.310  0.00  0.00     0.163 HD
ATOM      5  O   K26 d         -10.596  21.644 -12.070  0.00  0.00    -0.271 OA
BRANCH   3   6
ATOM      6  CBI K26 d         -11.991  23.711 -10.716  0.00  0.00     0.219 C 
BRANCH   6   7
ATOM      7  CAV K26 d         -12.015  25.069  -9.978  0.00  0.00     0.078 C 
BRANCH   7   8
ATOM      8  CBF K26 d         -10.681  25.354  -9.270  0.00  0.00    -0.055 A 
ATOM      9  CAR K26 d         -10.329  24.607  -8.148  0.00  0.00     0.010 A 
ATOM     10  CAN K26 d          -9.120  24.839  -7.498  0.00  0.00     0.037 A 
ATOM     11  CBD K26 d          -8.253  25.824  -7.973  0.00  0.00     0.065 A 
ATOM     12  CAO K26 d          -8.590  26.574  -9.104  0.00  0.00     0.037 A 
ATOM     13  CAS K26 d          -9.805  26.339  -9.747  0.00  0.00     0.010 A 
BRANCH  11  14
ATOM     14  OAI K26 d          -7.076  26.041  -7.325  0.00  0.00    -0.361 OA
ATOM     15  H   K26 d          -6.501  25.280  -7.445  0.00  0.00     0.217 HD
ENDBRANCH  11  14
ENDBRANCH   7   8
ENDBRANCH   6   7
BRANCH   6  16
ATOM     16  PBK K26 d         -13.677  23.150 -11.207  0.00  0.00     0.283 P 
ATOM     17  OAJ K26 d         -14.676  23.846 -10.195  0.00  0.00    -0.638 OA
ATOM     18  OAK K26 d         -13.889  23.830 -12.675  0.00  0.00    -0.638 OA
ATOM     19  OAG K26 d         -13.825  21.670 -11.215  0.00  0.00    -0.638 OA
ENDBRANCH   6  16
ENDBRANCH   3   6
ENDBRANCH   1   2
BRANCH   1  20
ATOM     20  N   K26 d          -8.135  22.959 -13.111  0.00  0.00    -0.346 N 
ATOM     21  CBB K26 d          -7.314  23.949 -12.741  0.00  0.00     0.241 C 
ATOM     22  OAF K26 d          -7.600  25.147 -12.769  0.00  0.00    -0.271 OA
ATOM     23  H   K26 d          -7.781  22.004 -13.068  0.00  0.00     0.163 HD
BRANCH  21  24
ATOM     24  CBJ K26 d          -5.901  23.490 -12.339  0.00  0.00     0.180 C 
BRANCH  24  25
ATOM     25  CBG K26 d          -5.333  24.282 -11.155  0.00  0.00     0.013 C 
ATOM     26  CAC K26 d          -5.986  23.810  -9.849  0.00  0.00     0.012 C 
BRANCH  25  27
ATOM     27  CAT K26 d          -3.806  24.124 -11.070  0.00  0.00     0.002 C 
ATOM     28  CAA K26 d          -3.160  25.152 -10.141  0.00  0.00     0.005 C 
ENDBRANCH  25  27
ENDBRANCH  24  25
BRANCH  24  29
ATOM     29  NAX K26 d          -5.059  23.611 -13.546  0.00  0.00    -0.348 N 
ATOM     30  CAZ K26 d          -4.950  22.623 -14.437  0.00  0.00     0.214 C 
ATOM     31  CAB K26 d          -4.073  22.931 -15.653  0.00  0.00     0.117 C 
ATOM     32  OAD K26 d          -5.476  21.519 -14.314  0.00  0.00    -0.274 OA
ATOM     33  H   K26 d          -4.544  24.476 -13.704  0.00  0.00     0.163 HD
ENDBRANCH  24  29
ENDBRANCH  21  24
ENDBRANCH   1  20
BRANCH   1  34
ATOM     34  CB  K26 d          -9.766  22.309 -14.819  0.00  0.00     0.073 C 
BRANCH  34  35
ATOM     35  CG  K26 d          -9.515  23.167 -16.069  0.00  0.00    -0.056 A 
ATOM     36  CD1 K26 d         -10.502  24.038 -16.524  0.00  0.00     0.010 A 
ATOM     37  CE1 K26 d         -10.273  24.833 -17.650  0.00  0.00     0.037 A 
ATOM     38  CZ  K26 d          -9.052  24.760 -18.323  0.00  0.00     0.065 A 
ATOM     39  CE2 K26 d          -8.062  23.892 -17.862  0.00  0.00     0.037 A 
ATOM     40  CD2 K26 d          -8.289  23.100 -16.734  0.00  0.00     0.010 A 
BRANCH  38  41
ATOM     41  OH  K26 d          -8.835  25.531 -19.432  0.00  0.00    -0.361 OA
ATOM     42  H   K26 d          -9.671  25.883 -19.744  0.00  0.00     0.217 HD
ENDBRANCH  38  41
ENDBRANCH  34  35
ENDBRANCH   1  34
TORSDOF 14
ENDMDL
MODEL 2
REMARK VINA RESULT:      -8.5      2.372      5.884
REMARK  14 active torsions:
REMARK  status: ('A' for Active; 'I' for Inactive)
REMARK    1  A    between atoms: CBD_3  and  OAI_4 
REMARK    2  A    between atoms: CBF_7  and  CAV_8 
REMARK    3  A    between atoms: CAV_8  and  CBI_9 
REMARK    4  A    between atoms: CBI_9  and  PBK_10 
REMARK    5  A    between atoms: CBI_9  and  NAY_14 
REMARK       I    between atoms: NAY_14  and  C_15 
REMARK    6  A    between atoms: C_15  and  CA_17 
REMARK    7  A    between atoms: CA_17  and  N_18 
REMARK    8  A    between atoms: CA_17  and  CB_30 
REMARK       I    between atoms: N_18  and  CBB_19 
REMARK    9  A    between atoms: CBB_19  and  CBJ_21 
REMARK   10  A    between atoms: CBJ_21  and  CBG_22 
REMARK   11  A    between atoms: CBJ_21  and  NAX_26 
REMARK   12  A    between atoms: CBG_22  and  CAT_24 
REMARK       I    between atoms: NAX_26  and  CAZ_27 
REMARK   13  A    between atoms: CB_30  and  CG_31 
REMARK   14  A    between atoms: CZ_34  and  OH_35 
ROOT
ATOM      1  CA  K26 d          -7.520  23.513 -11.073  0.00  0.00     0.180 C 
ENDROOT
BRANCH   1   2
ATOM      2  C   K26 d          -7.917  24.935 -10.666  0.00  0.00     0.241 C 
ATOM      3  NAY K26 d          -8.664  25.025  -9.562  0.00  0.00    -0.342 N 
ATOM      4  H   K26 d          -8.850  24.179  -9.023  0.00  0.00     0.163 HD
ATOM      5  O   K26 d          -7.577  25.889 -11.366  0.00  0.00    -0.271 OA
BRANCH   3   6
ATOM      6  CBI K26 d          -9.230  26.302  -9.098  0.00  0.00     0.219 C 
BRANCH   6   7
ATOM      7  CAV K26 d         -10.681  26.038  -8.635  0.00  0.00     0.078 C 
BRANCH   7   8
ATOM      8  CBF K26 d         -11.519  25.377  -9.741  0.00  0.00    -0.055 A 
ATOM      9  CAR K26 d         -11.536  25.941 -11.015  0.00  0.00     0.010 A 
ATOM     10  CAN K26 d         -12.278  25.352 -12.036  0.00  0.00     0.037 A 
ATOM     11  CBD K26 d         -13.008  24.190 -11.784  0.00  0.00     0.065 A 
ATOM     12  CAO K26 d         -12.991  23.609 -10.513  0.00  0.00     0.037 A 
ATOM     13  CAS K26 d         -12.249  24.206  -9.494  0.00  0.00     0.010 A 
BRANCH  11  14
ATOM     14  OAI K26 d         -13.730  23.628 -12.792  0.00  0.00    -0.361 OA
ATOM     15  H   K26 d         -13.161  23.054 -13.310  0.00  0.00     0.217 HD
ENDBRANCH  11  14
ENDBRANCH   7   8
ENDBRANCH   6   7
BRANCH   6  16
ATOM     16  PBK K26 d          -8.191  27.034  -7.763  0.00  0.00     0.283 P 
ATOM     17  OAJ K26 d          -9.068  28.179  -7.110  0.00  0.00    -0.638 OA
ATOM     18  OAK K26 d          -8.056  25.821  -6.681  0.00  0.00    -0.638 OA
ATOM     19  OAG K26 d          -6.880  27.540  -8.250  0.00  0.00    -0.638 OA
ENDBRANCH   6  16
ENDBRANCH   3   6
ENDBRANCH   1   2
BRANCH   1  20
ATOM     20  N   K26 d          -7.309  23.475 -12.534  0.00  0.00    -0.346 N 
ATOM     21  CBB K26 d          -8.282  23.270 -13.431  0.00  0.00     0.241 C 
ATOM     22  OAF K26 d          -9.463  23.061 -13.151  0.00  0.00    -0.271 OA
ATOM     23  H   K26 d          -6.361  23.615 -12.883  0.00  0.00     0.163 HD
BRANCH  21  24
ATOM     24  CBJ K26 d          -7.804  23.224 -14.893  0.00  0.00     0.180 C 
BRANCH  24  25
ATOM     25  CBG K26 d          -6.353  23.693 -15.059  0.00  0.00     0.013 C 
ATOM     26  CAC K26 d          -5.614  22.774 -16.040  0.00  0.00     0.012 C 
BRANCH  25  27
ATOM     27  CAT K26 d          -6.299  25.148 -15.553  0.00  0.00     0.002 C 
ATOM     28  CAA K26 d          -5.696  26.098 -14.519  0.00  0.00     0.005 C 
ENDBRANCH  25  27
ENDBRANCH  24  25
BRANCH  24  29
ATOM     29  NAX K26 d          -8.750  24.047 -15.673  0.00  0.00    -0.348 N 
ATOM     30  CAZ K26 d          -9.808  23.518 -16.290  0.00  0.00     0.214 C 
ATOM     31  CAB K26 d         -10.711  24.519 -17.015  0.00  0.00     0.117 C 
ATOM     32  OAD K26 d         -10.061  22.316 -16.323  0.00  0.00    -0.274 OA
ATOM     33  H   K26 d          -8.589  25.051 -15.743  0.00  0.00     0.163 HD
ENDBRANCH  24  29
ENDBRANCH  21  24
ENDBRANCH   1  20
BRANCH   1  34
ATOM     34  CB  K26 d          -6.254  23.046 -10.367  0.00  0.00     0.073 C 
BRANCH  34  35
ATOM     35  CG  K26 d          -5.049  23.310 -11.284  0.00  0.00    -0.056 A 
ATOM     36  CD1 K26 d          -4.395  24.539 -11.236  0.00  0.00     0.010 A 
ATOM     37  CE1 K26 d          -3.288  24.777 -12.056  0.00  0.00     0.037 A 
ATOM     38  CZ  K26 d          -2.833  23.784 -12.924  0.00  0.00     0.065 A 
ATOM     39  CE2 K26 d          -3.485  22.552 -12.966  0.00  0.00     0.037 A 
ATOM     40  CD2 K26 d          -4.588  22.312 -12.144  0.00  0.00     0.010 A 
BRANCH  38  41
ATOM     41  OH  K26 d          -1.756  24.025 -13.733  0.00  0.00    -0.361 OA
ATOM     42  H   K26 d          -1.221  24.725 -13.352  0.00  0.00     0.217 HD
ENDBRANCH  38  41
ENDBRANCH  34  35
ENDBRANCH   1  34
TORSDOF 14
ENDMDL
MODEL 3
REMARK VINA RESULT:      -8.4      1.915      6.759
REMARK  14 active torsions:
REMARK  status: ('A' for Active; 'I' for Inactive)
REMARK    1  A    between atoms: CBD_3  and  OAI_4 
REMARK    2  A    between atoms: CBF_7  and  CAV_8 
REMARK    3  A    between atoms: CAV_8  and  CBI_9 
REMARK    4  A    between atoms: CBI_9  and  PBK_10 
REMARK    5  A    between atoms: CBI_9  and  NAY_14 
REMARK       I    between atoms: NAY_14  and  C_15 
REMARK    6  A    between atoms: C_15  and  CA_17 
REMARK    7  A    between atoms: CA_17  and  N_18 
REMARK    8  A    between atoms: CA_17  and  CB_30 
REMARK       I    between atoms: N_18  and  CBB_19 
REMARK    9  A    between atoms: CBB_19  and  CBJ_21 
REMARK   10  A    between atoms: CBJ_21  and  CBG_22 
REMARK   11  A    between atoms: CBJ_21  and  NAX_26 
REMARK   12  A    between atoms: CBG_22  and  CAT_24 
REMARK       I    between atoms: NAX_26  and  CAZ_27 
REMARK   13  A    between atoms: CB_30  and  CG_31 
REMARK   14  A    between atoms: CZ_34  and  OH_35 
ROOT
ATOM      1  CA  K26 d          -8.912  24.865  -9.339  0.00  0.00     0.180 C 
ENDROOT
BRANCH   1   2
ATOM      2  C   K26 d         -10.007  24.931 -10.407  0.00  0.00     0.241 C 
ATOM      3  NAY K26 d         -10.526  23.754 -10.766  0.00  0.00    -0.342 N 
ATOM      4  H   K26 d         -10.236  22.914 -10.263  0.00  0.00     0.163 HD
ATOM      5  O   K26 d         -10.319  26.018 -10.896  0.00  0.00    -0.271 OA
BRANCH   3   6
ATOM      6  CBI K26 d         -11.502  23.626 -11.861  0.00  0.00     0.219 C 
BRANCH   6   7
ATOM      7  CAV K26 d         -11.071  22.432 -12.743  0.00  0.00     0.078 C 
BRANCH   7   8
ATOM      8  CBF K26 d         -10.537  22.898 -14.108  0.00  0.00    -0.055 A 
ATOM      9  CAR K26 d          -9.695  22.060 -14.836  0.00  0.00     0.010 A 
ATOM     10  CAN K26 d          -9.210  22.457 -16.079  0.00  0.00     0.037 A 
ATOM     11  CBD K26 d          -9.569  23.699 -16.602  0.00  0.00     0.065 A 
ATOM     12  CAO K26 d         -10.421  24.546 -15.885  0.00  0.00     0.037 A 
ATOM     13  CAS K26 d         -10.900  24.143 -14.638  0.00  0.00     0.010 A 
BRANCH  11  14
ATOM     14  OAI K26 d          -9.085  24.073 -17.817  0.00  0.00    -0.361 OA
ATOM     15  H   K26 d          -9.268  25.005 -17.961  0.00  0.00     0.217 HD
ENDBRANCH  11  14
ENDBRANCH   7   8
ENDBRANCH   6   7
BRANCH   6  16
ATOM     16  PBK K26 d         -13.210  23.427 -11.199  0.00  0.00     0.283 P 
ATOM     17  OAJ K26 d         -14.173  23.511 -12.453  0.00  0.00    -0.638 OA
ATOM     18  OAK K26 d         -13.227  21.891 -10.651  0.00  0.00    -0.638 OA
ATOM     19  OAG K26 d         -13.557  24.429 -10.156  0.00  0.00    -0.638 OA
ENDBRANCH   6  16
ENDBRANCH   3   6
ENDBRANCH   1   2
BRANCH   1  20
ATOM     20  N   K26 d          -7.597  24.782 -10.006  0.00  0.00    -0.346 N 
ATOM     21  CBB K26 d          -6.904  23.647 -10.168  0.00  0.00     0.241 C 
ATOM     22  OAF K26 d          -7.261  22.542  -9.759  0.00  0.00    -0.271 OA
ATOM     23  H   K26 d          -7.190  25.644 -10.367  0.00  0.00     0.163 HD
BRANCH  21  24
ATOM     24  CBJ K26 d          -5.536  23.826 -10.849  0.00  0.00     0.180 C 
BRANCH  24  25
ATOM     25  CBG K26 d          -4.953  25.231 -10.653  0.00  0.00     0.013 C 
ATOM     26  CAC K26 d          -4.257  25.323  -9.289  0.00  0.00     0.012 C 
BRANCH  25  27
ATOM     27  CAT K26 d          -3.963  25.577 -11.777  0.00  0.00     0.002 C 
ATOM     28  CAA K26 d          -2.543  25.101 -11.477  0.00  0.00     0.005 C 
ENDBRANCH  25  27
ENDBRANCH  24  25
BRANCH  24  29
ATOM     29  NAX K26 d          -5.728  23.495 -12.275  0.00  0.00    -0.348 N 
ATOM     30  CAZ K26 d          -5.007  22.555 -12.889  0.00  0.00     0.214 C 
ATOM     31  CAB K26 d          -5.366  22.306 -14.355  0.00  0.00     0.117 C 
ATOM     32  OAD K26 d          -4.090  21.929 -12.359  0.00  0.00    -0.274 OA
ATOM     33  H   K26 d          -6.435  24.001 -12.809  0.00  0.00     0.163 HD
ENDBRANCH  24  29
ENDBRANCH  21  24
ENDBRANCH   1  20
BRANCH   1  34
ATOM     34  CB  K26 d          -8.936  26.077  -8.417  0.00  0.00     0.073 C 
BRANCH  34  35
ATOM     35  CG  K26 d          -7.871  25.890  -7.324  0.00  0.00    -0.056 A 
ATOM     36  CD1 K26 d          -6.872  26.847  -7.155  0.00  0.00     0.010 A 
ATOM     37  CE1 K26 d          -5.912  26.690  -6.153  0.00  0.00     0.037 A 
ATOM     38  CZ  K26 d          -5.949  25.574  -5.315  0.00  0.00     0.065 A 
ATOM     39  CE2 K26 d          -6.953  24.620  -5.481  0.00  0.00     0.037 A 
ATOM     40  CD2 K26 d          -7.916  24.779  -6.480  0.00  0.00     0.010 A 
BRANCH  38  41
ATOM     41  OH  K26 d          -5.001  25.418  -4.342  0.00  0.00    -0.361 OA
ATOM     42  H   K26 d          -5.050  26.154  -3.727  0.00  0.00     0.217 HD
ENDBRANCH  38  41
ENDBRANCH  34  35
ENDBRANCH   1  34
TORSDOF 14
ENDMDL
MODEL 4
REMARK VINA RESULT:      -8.3      3.409      7.323
REMARK  14 active torsions:
REMARK  status: ('A' for Active; 'I' for Inactive)
REMARK    1  A    between atoms: CBD_3  and  OAI_4 
REMARK    2  A    between atoms: CBF_7  and  CAV_8 
REMARK    3  A    between atoms: CAV_8  and  CBI_9 
REMARK    4  A    between atoms: CBI_9  and  PBK_10 
REMARK    5  A    between atoms: CBI_9  and  NAY_14 
REMARK       I    between atoms: NAY_14  and  C_15 
REMARK    6  A    between atoms: C_15  and  CA_17 
REMARK    7  A    between atoms: CA_17  and  N_18 
REMARK    8  A    between atoms: CA_17  and  CB_30 
REMARK       I    between atoms: N_18  and  CBB_19 
REMARK    9  A    between atoms: CBB_19  and  CBJ_21 
REMARK   10  A    between atoms: CBJ_21  and  CBG_22 
REMARK   11  A    between atoms: CBJ_21  and  NAX_26 
REMARK   12  A    between atoms: CBG_22  and  CAT_24 
REMARK       I    between atoms: NAX_26  and  CAZ_27 
REMARK   13  A    between atoms: CB_30  and  CG_31 
REMARK   14  A    between atoms: CZ_34  and  OH_35 
ROOT
ATOM      1  CA  K26 d          -3.528  23.084 -13.849  0.00  0.00     0.180 C 
ENDROOT
BRANCH   1   2
ATOM      2  C   K26 d          -4.723  22.653 -14.703  0.00  0.00     0.241 C 
ATOM      3  NAY K26 d          -5.060  23.500 -15.680  0.00  0.00    -0.342 N 
ATOM      4  H   K26 d          -4.470  24.314 -15.852  0.00  0.00     0.163 HD
ATOM      5  O   K26 d          -5.321  21.609 -14.437  0.00  0.00    -0.271 OA
BRANCH   3   6
ATOM      6  CBI K26 d          -6.255  23.298 -16.517  0.00  0.00     0.219 C 
BRANCH   6   7
ATOM      7  CAV K26 d          -7.364  24.241 -15.996  0.00  0.00     0.078 C 
BRANCH   7   8
ATOM      8  CBF K26 d          -8.283  23.534 -14.988  0.00  0.00    -0.055 A 
ATOM      9  CAR K26 d          -8.995  22.405 -15.386  0.00  0.00     0.010 A 
ATOM     10  CAN K26 d          -9.824  21.741 -14.485  0.00  0.00     0.037 A 
ATOM     11  CBD K26 d          -9.943  22.206 -13.176  0.00  0.00     0.065 A 
ATOM     12  CAO K26 d          -9.226  23.333 -12.761  0.00  0.00     0.037 A 
ATOM     13  CAS K26 d          -8.400  23.995 -13.669  0.00  0.00     0.010 A 
BRANCH  11  14
ATOM     14  OAI K26 d         -10.759  21.548 -12.308  0.00  0.00    -0.361 OA
ATOM     15  H   K26 d         -10.225  21.044 -11.689  0.00  0.00     0.217 HD
ENDBRANCH  11  14
ENDBRANCH   7   8
ENDBRANCH   6   7
BRANCH   6  16
ATOM     16  PBK K26 d          -5.867  23.588 -18.295  0.00  0.00     0.283 P 
ATOM     17  OAJ K26 d          -5.056  24.946 -18.346  0.00  0.00    -0.638 OA
ATOM     18  OAK K26 d          -4.841  22.373 -18.661  0.00  0.00    -0.638 OA
ATOM     19  OAG K26 d          -7.075  23.622 -19.163  0.00  0.00    -0.638 OA
ENDBRANCH   6  16
ENDBRANCH   3   6
ENDBRANCH   1   2
BRANCH   1  20
ATOM     20  N   K26 d          -3.596  24.543 -13.631  0.00  0.00    -0.346 N 
ATOM     21  CBB K26 d          -2.601  25.394 -13.911  0.00  0.00     0.241 C 
ATOM     22  OAF K26 d          -1.501  25.067 -14.357  0.00  0.00    -0.271 OA
ATOM     23  H   K26 d          -4.457  24.927 -13.242  0.00  0.00     0.163 HD
BRANCH  21  24
ATOM     24  CBJ K26 d          -2.894  26.861 -13.548  0.00  0.00     0.180 C 
BRANCH  24  25
ATOM     25  CBG K26 d          -1.729  27.535 -12.813  0.00  0.00     0.013 C 
ATOM     26  CAC K26 d          -1.790  29.054 -13.017  0.00  0.00     0.012 C 
BRANCH  25  27
ATOM     27  CAT K26 d          -1.760  27.202 -11.312  0.00  0.00     0.002 C 
ATOM     28  CAA K26 d          -0.660  26.222 -10.905  0.00  0.00     0.005 C 
ENDBRANCH  25  27
ENDBRANCH  24  25
BRANCH  24  29
ATOM     29  NAX K26 d          -4.134  26.858 -12.746  0.00  0.00    -0.348 N 
ATOM     30  CAZ K26 d          -5.262  27.423 -13.181  0.00  0.00     0.214 C 
ATOM     31  CAB K26 d          -6.465  27.290 -12.246  0.00  0.00     0.117 C 
ATOM     32  OAD K26 d          -5.362  28.042 -14.239  0.00  0.00    -0.274 OA
ATOM     33  H   K26 d          -4.129  26.410 -11.830  0.00  0.00     0.163 HD
ENDBRANCH  24  29
ENDBRANCH  21  24
ENDBRANCH   1  20
BRANCH   1  34
ATOM     34  CB  K26 d          -3.498  22.372 -12.503  0.00  0.00     0.073 C 
BRANCH  34  35
ATOM     35  CG  K26 d          -4.309  23.195 -11.489  0.00  0.00    -0.056 A 
ATOM     36  CD1 K26 d          -5.662  22.923 -11.296  0.00  0.00     0.010 A 
ATOM     37  CE1 K26 d          -6.400  23.657 -10.363  0.00  0.00     0.037 A 
ATOM     38  CZ  K26 d          -5.784  24.665  -9.620  0.00  0.00     0.065 A 
ATOM     39  CE2 K26 d          -4.429  24.932  -9.810  0.00  0.00     0.037 A 
ATOM     40  CD2 K26 d          -3.690  24.196 -10.739  0.00  0.00     0.010 A 
BRANCH  38  41
ATOM     41  OH  K26 d          -6.512  25.389  -8.716  0.00  0.00    -0.361 OA
ATOM     42  H   K26 d          -6.320  25.078  -7.828  0.00  0.00     0.217 HD
ENDBRANCH  38  41
ENDBRANCH  34  35
ENDBRANCH   1  34
TORSDOF 14
ENDMDL
MODEL 5
REMARK VINA RESULT:      -8.3      2.445      7.383
REMARK  14 active torsions:
REMARK  status: ('A' for Active; 'I' for Inactive)
REMARK    1  A    between atoms: CBD_3  and  OAI_4 
REMARK    2  A    between atoms: CBF_7  and  CAV_8 
REMARK    3  A    between atoms: CAV_8  and  CBI_9 
REMARK    4  A    between atoms: CBI_9  and  PBK_10 
REMARK    5  A    between atoms: CBI_9  and  NAY_14 
REMARK       I    between atoms: NAY_14  and  C_15 
REMARK    6  A    between atoms: C_15  and  CA_17 
REMARK    7  A    between atoms: CA_17  and  N_18 
REMARK    8  A    between atoms: CA_17  and  CB_30 
REMARK       I    between atoms: N_18  and  CBB_19 
REMARK    9  A    between atoms: CBB_19  and  CBJ_21 
REMARK   10  A    between atoms: CBJ_21  and  CBG_22 
REMARK   11  A    between atoms: CBJ_21  and  NAX_26 
REMARK   12  A    between atoms: CBG_22  and  CAT_24 
REMARK       I    between atoms: NAX_26  and  CAZ_27 
REMARK   13  A    between atoms: CB_30  and  CG_31 
REMARK   14  A    between atoms: CZ_34  and  OH_35 
ROOT
ATOM      1  CA  K26 d          -6.631  24.819 -10.637  0.00  0.00     0.180 C 
ENDROOT
BRANCH   1   2
ATOM      2  C   K26 d          -7.422  25.088 -11.920  0.00  0.00     0.241 C 
ATOM      3  NAY K26 d          -7.966  24.011 -12.491  0.00  0.00    -0.342 N 
ATOM      4  H   K26 d          -7.900  23.113 -12.011  0.00  0.00     0.163 HD
ATOM      5  O   K26 d          -7.485  26.233 -12.370  0.00  0.00    -0.271 OA
BRANCH   3   6
ATOM      6  CBI K26 d          -8.657  24.073 -13.789  0.00  0.00     0.219 C 
BRANCH   6   7
ATOM      7  CAV K26 d          -8.405  22.738 -14.526  0.00  0.00     0.078 C 
BRANCH   7   8
ATOM      8  CBF K26 d          -7.518  22.932 -15.766  0.00  0.00    -0.055 A 
ATOM      9  CAR K26 d          -8.108  23.265 -16.984  0.00  0.00     0.010 A 
ATOM     10  CAN K26 d          -7.323  23.457 -18.118  0.00  0.00     0.037 A 
ATOM     11  CBD K26 d          -5.937  23.319 -18.036  0.00  0.00     0.065 A 
ATOM     12  CAO K26 d          -5.332  22.996 -16.817  0.00  0.00     0.037 A 
ATOM     13  CAS K26 d          -6.125  22.800 -15.686  0.00  0.00     0.010 A 
BRANCH  11  14
ATOM     14  OAI K26 d          -5.183  23.509 -19.153  0.00  0.00    -0.361 OA
ATOM     15  H   K26 d          -5.370  22.811 -19.786  0.00  0.00     0.217 HD
ENDBRANCH  11  14
ENDBRANCH   7   8
ENDBRANCH   6   7
BRANCH   6  16
ATOM     16  PBK K26 d         -10.453  24.420 -13.562  0.00  0.00     0.283 P 
ATOM     17  OAJ K26 d         -10.940  25.084 -14.914  0.00  0.00    -0.638 OA
ATOM     18  OAK K26 d         -11.116  22.933 -13.461  0.00  0.00    -0.638 OA
ATOM     19  OAG K26 d         -10.741  25.276 -12.380  0.00  0.00    -0.638 OA
ENDBRANCH   6  16
ENDBRANCH   3   6
ENDBRANCH   1   2
BRANCH   1  20
ATOM     20  N   K26 d          -7.530  24.987  -9.476  0.00  0.00    -0.346 N 
ATOM     21  CBB K26 d          -8.613  24.234  -9.247  0.00  0.00     0.241 C 
ATOM     22  OAF K26 d          -9.009  23.330  -9.984  0.00  0.00    -0.271 OA
ATOM     23  H   K26 d          -7.311  25.725  -8.807  0.00  0.00     0.163 HD
BRANCH  21  24
ATOM     24  CBJ K26 d          -9.418  24.637  -7.998  0.00  0.00     0.180 C 
BRANCH  24  25
ATOM     25  CBG K26 d         -10.488  25.693  -8.296  0.00  0.00     0.013 C 
ATOM     26  CAC K26 d          -9.962  26.694  -9.332  0.00  0.00     0.012 C 
BRANCH  25  27
ATOM     27  CAT K26 d         -11.782  25.037  -8.804  0.00  0.00     0.002 C 
ATOM     28  CAA K26 d         -12.745  26.044  -9.432  0.00  0.00     0.005 C 
ENDBRANCH  25  27
ENDBRANCH  24  25
BRANCH  24  29
ATOM     29  NAX K26 d          -8.438  25.101  -6.996  0.00  0.00    -0.348 N 
ATOM     30  CAZ K26 d          -8.021  24.320  -5.997  0.00  0.00     0.214 C 
ATOM     31  CAB K26 d          -6.969  24.942  -5.075  0.00  0.00     0.117 C 
ATOM     32  OAD K26 d          -8.446  23.187  -5.780  0.00  0.00    -0.274 OA
ATOM     33  H   K26 d          -8.068  26.048  -7.069  0.00  0.00     0.163 HD
ENDBRANCH  24  29
ENDBRANCH  21  24
ENDBRANCH   1  20
BRANCH   1  34
ATOM     34  CB  K26 d          -6.033  23.419 -10.614  0.00  0.00     0.073 C 
BRANCH  34  35
ATOM     35  CG  K26 d          -4.776  23.402 -11.499  0.00  0.00    -0.056 A 
ATOM     36  CD1 K26 d          -4.634  22.430 -12.487  0.00  0.00     0.010 A 
ATOM     37  CE1 K26 d          -3.501  22.420 -13.304  0.00  0.00     0.037 A 
ATOM     38  CZ  K26 d          -2.507  23.385 -13.136  0.00  0.00     0.065 A 
ATOM     39  CE2 K26 d          -2.653  24.361 -12.151  0.00  0.00     0.037 A 
ATOM     40  CD2 K26 d          -3.788  24.374 -11.335  0.00  0.00     0.010 A 
BRANCH  38  41
ATOM     41  OH  K26 d          -1.394  23.365 -13.931  0.00  0.00    -0.361 OA
ATOM     42  H   K26 d          -0.884  22.573 -13.746  0.00  0.00     0.217 HD
ENDBRANCH  38  41
ENDBRANCH  34  35
ENDBRANCH   1  34
TORSDOF 14
ENDMDL
MODEL 6
REMARK VINA RESULT:      -8.3      2.849      6.609
REMARK  14 active torsions:
REMARK  status: ('A' for Active; 'I' for Inactive)
REMARK    1  A    between atoms: CBD_3  and  OAI_4 
REMARK    2  A    between atoms: CBF_7  and  CAV_8 
REMARK    3  A    between atoms: CAV_8  and  CBI_9 
REMARK    4  A    between atoms: CBI_9  and  PBK_10 
REMARK    5  A    between atoms: CBI_9  and  NAY_14 
REMARK       I    between atoms: NAY_14  and  C_15 
REMARK    6  A    between atoms: C_15  and  CA_17 
REMARK    7  A    between atoms: CA_17  and  N_18 
REMARK    8  A    between atoms: CA_17  and  CB_30 
REMARK       I    between atoms: N_18  and  CBB_19 
REMARK    9  A    between atoms: CBB_19  and  CBJ_21 
REMARK   10  A    between atoms: CBJ_21  and  CBG_22 
REMARK   11  A    between atoms: CBJ_21  and  NAX_26 
REMARK   12  A    between atoms: CBG_22  and  CAT_24 
REMARK       I    between atoms: NAX_26  and  CAZ_27 
REMARK   13  A    between atoms: CB_30  and  CG_31 
REMARK   14  A    between atoms: CZ_34  and  OH_35 
ROOT
ATOM      1  CA  K26 d          -6.048  23.930 -13.059  0.00  0.00     0.180 C 
ENDROOT
BRANCH   1   2
ATOM      2  C   K26 d          -6.113  23.088 -14.336  0.00  0.00     0.241 C 
ATOM      3  NAY K26 d          -6.783  23.642 -15.350  0.00  0.00    -0.342 N 
ATOM      4  H   K26 d          -7.127  24.597 -15.250  0.00  0.00     0.163 HD
ATOM      5  O   K26 d          -5.600  21.969 -14.357  0.00  0.00    -0.271 OA
BRANCH   3   6
ATOM      6  CBI K26 d          -7.042  22.921 -16.608  0.00  0.00     0.219 C 
BRANCH   6   7
ATOM      7  CAV K26 d          -8.522  23.151 -16.990  0.00  0.00     0.078 C 
BRANCH   7   8
ATOM      8  CBF K26 d          -9.443  23.080 -15.762  0.00  0.00    -0.055 A 
ATOM      9  CAR K26 d         -10.276  24.158 -15.469  0.00  0.00     0.010 A 
ATOM     10  CAN K26 d         -11.127  24.111 -14.368  0.00  0.00     0.037 A 
ATOM     11  CBD K26 d         -11.149  22.979 -13.553  0.00  0.00     0.065 A 
ATOM     12  CAO K26 d         -10.325  21.887 -13.842  0.00  0.00     0.037 A 
ATOM     13  CAS K26 d          -9.472  21.942 -14.944  0.00  0.00     0.010 A 
BRANCH  11  14
ATOM     14  OAI K26 d         -11.985  22.950 -12.480  0.00  0.00    -0.361 OA
ATOM     15  H   K26 d         -12.742  23.517 -12.648  0.00  0.00     0.217 HD
ENDBRANCH  11  14
ENDBRANCH   7   8
ENDBRANCH   6   7
BRANCH   6  16
ATOM     16  PBK K26 d          -5.882  23.471 -17.931  0.00  0.00     0.283 P 
ATOM     17  OAJ K26 d          -4.916  22.246 -18.196  0.00  0.00    -0.638 OA
ATOM     18  OAK K26 d          -6.849  23.643 -19.234  0.00  0.00    -0.638 OA
ATOM     19  OAG K26 d          -5.137  24.710 -17.582  0.00  0.00    -0.638 OA
ENDBRANCH   6  16
ENDBRANCH   3   6
ENDBRANCH   1   2
BRANCH   1  20
ATOM     20  N   K26 d          -4.641  24.297 -12.799  0.00  0.00    -0.346 N 
ATOM     21  CBB K26 d          -4.038  24.174 -11.610  0.00  0.00     0.241 C 
ATOM     22  OAF K26 d          -4.584  23.767 -10.584  0.00  0.00    -0.271 OA
ATOM     23  H   K26 d          -4.094  24.669 -13.575  0.00  0.00     0.163 HD
BRANCH  21  24
ATOM     24  CBJ K26 d          -2.582  24.671 -11.578  0.00  0.00     0.180 C 
BRANCH  24  25
ATOM     25  CBG K26 d          -2.243  25.435 -10.292  0.00  0.00     0.013 C 
ATOM     26  CAC K26 d          -0.819  25.998 -10.377  0.00  0.00     0.012 C 
BRANCH  25  27
ATOM     27  CAT K26 d          -3.248  26.572 -10.047  0.00  0.00     0.002 C 
ATOM     28  CAA K26 d          -3.796  26.575  -8.620  0.00  0.00     0.005 C 
ENDBRANCH  25  27
ENDBRANCH  24  25
BRANCH  24  29
ATOM     29  NAX K26 d          -2.391  25.499 -12.786  0.00  0.00    -0.348 N 
ATOM     30  CAZ K26 d          -1.884  25.000 -13.915  0.00  0.00     0.214 C 
ATOM     31  CAB K26 d          -1.798  25.984 -15.084  0.00  0.00     0.117 C 
ATOM     32  OAD K26 d          -1.477  23.847 -14.041  0.00  0.00    -0.274 OA
ATOM     33  H   K26 d          -2.656  26.484 -12.756  0.00  0.00     0.163 HD
ENDBRANCH  24  29
ENDBRANCH  21  24
ENDBRANCH   1  20
BRANCH   1  34
ATOM     34  CB  K26 d          -6.890  25.195 -13.162  0.00  0.00     0.073 C 
BRANCH  34  35
ATOM     35  CG  K26 d          -8.073  25.085 -12.186  0.00  0.00    -0.056 A 
ATOM     36  CD1 K26 d          -8.191  23.969 -11.361  0.00  0.00     0.010 A 
ATOM     37  CE1 K26 d          -9.255  23.871 -10.460  0.00  0.00     0.037 A 
ATOM     38  CZ  K26 d         -10.203  24.893 -10.382  0.00  0.00     0.065 A 
ATOM     39  CE2 K26 d         -10.079  26.012 -11.204  0.00  0.00     0.037 A 
ATOM     40  CD2 K26 d          -9.014  26.112 -12.102  0.00  0.00     0.010 A 
BRANCH  38  41
ATOM     41  OH  K26 d         -11.249  24.789  -9.507  0.00  0.00    -0.361 OA
ATOM     42  H   K26 d         -11.602  23.896  -9.535  0.00  0.00     0.217 HD
ENDBRANCH  38  41
ENDBRANCH  34  35
ENDBRANCH   1  34
TORSDOF 14
ENDMDL
MODEL 7
REMARK VINA RESULT:      -8.3      2.915      7.237
REMARK  14 active torsions:
REMARK  status: ('A' for Active; 'I' for Inactive)
REMARK    1  A    between atoms: CBD_3  and  OAI_4 
REMARK    2  A    between atoms: CBF_7  and  CAV_8 
REMARK    3  A    between atoms: CAV_8  and  CBI_9 
REMARK    4  A    between atoms: CBI_9  and  PBK_10 
REMARK    5  A    between atoms: CBI_9  and  NAY_14 
REMARK       I    between atoms: NAY_14  and  C_15 
REMARK    6  A    between atoms: C_15  and  CA_17 
REMARK    7  A    between atoms: CA_17  and  N_18 
REMARK    8  A    between atoms: CA_17  and  CB_30 
REMARK       I    between atoms: N_18  and  CBB_19 
REMARK    9  A    between atoms: CBB_19  and  CBJ_21 
REMARK   10  A    between atoms: CBJ_21  and  CBG_22 
REMARK   11  A    between atoms: CBJ_21  and  NAX_26 
REMARK   12  A    between atoms: CBG_22  and  CAT_24 
REMARK       I    between atoms: NAX_26  and  CAZ_27 
REMARK   13  A    between atoms: CB_30  and  CG_31 
REMARK   14  A    between atoms: CZ_34  and  OH_35 
ROOT
ATOM      1  CA  K26 d          -8.592  23.772 -13.928  0.00  0.00     0.180 C 
ENDROOT
BRANCH   1   2
ATOM      2  C   K26 d          -7.530  24.252 -14.920  0.00  0.00     0.241 C 
ATOM      3  NAY K26 d          -6.674  23.315 -15.337  0.00  0.00    -0.342 N 
ATOM      4  H   K26 d          -6.823  22.348 -15.048  0.00  0.00     0.163 HD
ATOM      5  O   K26 d          -7.490  25.439 -15.247  0.00  0.00    -0.271 OA
BRANCH   3   6
ATOM      6  CBI K26 d          -5.522  23.630 -16.198  0.00  0.00     0.219 C 
BRANCH   6   7
ATOM      7  CAV K26 d          -4.326  22.772 -15.723  0.00  0.00     0.078 C 
BRANCH   7   8
ATOM      8  CBF K26 d          -3.743  23.293 -14.400  0.00  0.00    -0.055 A 
ATOM      9  CAR K26 d          -4.086  22.664 -13.206  0.00  0.00     0.010 A 
ATOM     10  CAN K26 d          -3.560  23.112 -11.997  0.00  0.00     0.037 A 
ATOM     11  CBD K26 d          -2.682  24.196 -11.980  0.00  0.00     0.065 A 
ATOM     12  CAO K26 d          -2.322  24.830 -13.173  0.00  0.00     0.037 A 
ATOM     13  CAS K26 d          -2.856  24.379 -14.380  0.00  0.00     0.010 A 
BRANCH  11  14
ATOM     14  OAI K26 d          -2.178  24.623 -10.790  0.00  0.00    -0.361 OA
ATOM     15  H   K26 d          -2.269  25.577 -10.728  0.00  0.00     0.217 HD
ENDBRANCH  11  14
ENDBRANCH   7   8
ENDBRANCH   6   7
BRANCH   6  16
ATOM     16  PBK K26 d          -5.930  23.344 -17.972  0.00  0.00     0.283 P 
ATOM     17  OAJ K26 d          -5.615  24.706 -18.714  0.00  0.00    -0.638 OA
ATOM     18  OAK K26 d          -4.821  22.244 -18.442  0.00  0.00    -0.638 OA
ATOM     19  OAG K26 d          -7.332  22.898 -18.188  0.00  0.00    -0.638 OA
ENDBRANCH   6  16
ENDBRANCH   3   6
ENDBRANCH   1   2
BRANCH   1  20
ATOM     20  N   K26 d          -8.830  24.836 -12.931  0.00  0.00    -0.346 N 
ATOM     21  CBB K26 d          -8.432  24.774 -11.653  0.00  0.00     0.241 C 
ATOM     22  OAF K26 d          -7.846  23.818 -11.146  0.00  0.00    -0.271 OA
ATOM     23  H   K26 d          -9.330  25.671 -13.234  0.00  0.00     0.163 HD
BRANCH  21  24
ATOM     24  CBJ K26 d          -8.843  25.985 -10.797  0.00  0.00     0.180 C 
BRANCH  24  25
ATOM     25  CBG K26 d          -9.940  25.649  -9.779  0.00  0.00     0.013 C 
ATOM     26  CAC K26 d          -9.734  26.466  -8.498  0.00  0.00     0.012 C 
BRANCH  25  27
ATOM     27  CAT K26 d         -11.335  25.923 -10.364  0.00  0.00     0.002 C 
ATOM     28  CAA K26 d         -12.457  25.637  -9.366  0.00  0.00     0.005 C 
ENDBRANCH  25  27
ENDBRANCH  24  25
BRANCH  24  29
ATOM     29  NAX K26 d          -9.259  27.045 -11.737  0.00  0.00    -0.348 N 
ATOM     30  CAZ K26 d          -8.731  28.270 -11.704  0.00  0.00     0.214 C 
ATOM     31  CAB K26 d          -9.241  29.233 -12.778  0.00  0.00     0.117 C 
ATOM     32  OAD K26 d          -7.911  28.648 -10.869  0.00  0.00    -0.274 OA
ATOM     33  H   K26 d          -9.974  26.835 -12.434  0.00  0.00     0.163 HD
ENDBRANCH  24  29
ENDBRANCH  21  24
ENDBRANCH   1  20
BRANCH   1  34
ATOM     34  CB  K26 d          -9.905  23.422 -14.616  0.00  0.00     0.073 C 
BRANCH  34  35
ATOM     35  CG  K26 d         -10.930  23.007 -13.549  0.00  0.00    -0.056 A 
ATOM     36  CD1 K26 d         -10.691  21.889 -12.752  0.00  0.00     0.010 A 
ATOM     37  CE1 K26 d         -11.611  21.517 -11.769  0.00  0.00     0.037 A 
ATOM     38  CZ  K26 d         -12.774  22.265 -11.579  0.00  0.00     0.065 A 
ATOM     39  CE2 K26 d         -13.010  23.387 -12.373  0.00  0.00     0.037 A 
ATOM     40  CD2 K26 d         -12.088  23.762 -13.354  0.00  0.00     0.010 A 
BRANCH  38  41
ATOM     41  OH  K26 d         -13.679  21.892 -10.624  0.00  0.00    -0.361 OA
ATOM     42  H   K26 d         -13.476  21.003 -10.322  0.00  0.00     0.217 HD
ENDBRANCH  38  41
ENDBRANCH  34  35
ENDBRANCH   1  34
TORSDOF 14
ENDMDL
MODEL 8
REMARK VINA RESULT:      -8.2      2.999      7.004
REMARK  14 active torsions:
REMARK  status: ('A' for Active; 'I' for Inactive)
REMARK    1  A    between atoms: CBD_3  and  OAI_4 
REMARK    2  A    between atoms: CBF_7  and  CAV_8 
REMARK    3  A    between atoms: CAV_8  and  CBI_9 
REMARK    4  A    between atoms: CBI_9  and  PBK_10 
REMARK    5  A    between atoms: CBI_9  and  NAY_14 
REMARK       I    between atoms: NAY_14  and  C_15 
REMARK    6  A    between atoms: C_15  and  CA_17 
REMARK    7  A    between atoms: CA_17  and  N_18 
REMARK    8  A    between atoms: CA_17  and  CB_30 
REMARK       I    between atoms: N_18  and  CBB_19 
REMARK    9  A    between atoms: CBB_19  and  CBJ_21 
REMARK   10  A    between atoms: CBJ_21  and  CBG_22 
REMARK   11  A    between atoms: CBJ_21  and  NAX_26 
REMARK   12  A    between atoms: CBG_22  and  CAT_24 
REMARK       I    between atoms: NAX_26  and  CAZ_27 
REMARK   13  A    between atoms: CB_30  and  CG_31 
REMARK   14  A    between atoms: CZ_34  and  OH_35 
ROOT
ATOM      1  CA  K26 d          -7.918  25.663 -13.674  0.00  0.00     0.180 C 
ENDROOT
BRANCH   1   2
ATOM      2  C   K26 d          -6.460  25.621 -13.206  0.00  0.00     0.241 C 
ATOM      3  NAY K26 d          -5.856  24.437 -13.329  0.00  0.00    -0.342 N 
ATOM      4  H   K26 d          -6.353  23.675 -13.793  0.00  0.00     0.163 HD
ATOM      5  O   K26 d          -5.945  26.629 -12.720  0.00  0.00    -0.271 OA
BRANCH   3   6
ATOM      6  CBI K26 d          -4.496  24.191 -12.820  0.00  0.00     0.219 C 
BRANCH   6   7
ATOM      7  CAV K26 d          -4.602  23.187 -11.649  0.00  0.00     0.078 C 
BRANCH   7   8
ATOM      8  CBF K26 d          -5.466  23.740 -10.504  0.00  0.00    -0.055 A 
ATOM      9  CAR K26 d          -6.691  23.139 -10.220  0.00  0.00     0.010 A 
ATOM     10  CAN K26 d          -7.484  23.616  -9.180  0.00  0.00     0.037 A 
ATOM     11  CBD K26 d          -7.053  24.700  -8.416  0.00  0.00     0.065 A 
ATOM     12  CAO K26 d          -5.821  25.306  -8.685  0.00  0.00     0.037 A 
ATOM     13  CAS K26 d          -5.033  24.826  -9.731  0.00  0.00     0.010 A 
BRANCH  11  14
ATOM     14  OAI K26 d          -7.841  25.155  -7.404  0.00  0.00    -0.361 OA
ATOM     15  H   K26 d          -7.287  25.460  -6.681  0.00  0.00     0.217 HD
ENDBRANCH  11  14
ENDBRANCH   7   8
ENDBRANCH   6   7
BRANCH   6  16
ATOM     16  PBK K26 d          -3.391  23.585 -14.165  0.00  0.00     0.283 P 
ATOM     17  OAJ K26 d          -3.932  22.150 -14.556  0.00  0.00    -0.638 OA
ATOM     18  OAK K26 d          -3.708  24.600 -15.402  0.00  0.00    -0.638 OA
ATOM     19  OAG K26 d          -1.955  23.558 -13.777  0.00  0.00    -0.638 OA
ENDBRANCH   6  16
ENDBRANCH   3   6
ENDBRANCH   1   2
BRANCH   1  20
ATOM     20  N   K26 d          -7.945  25.829 -15.141  0.00  0.00    -0.346 N 
ATOM     21  CBB K26 d          -8.557  26.837 -15.775  0.00  0.00     0.241 C 
ATOM     22  OAF K26 d          -9.193  27.733 -15.218  0.00  0.00    -0.271 OA
ATOM     23  H   K26 d          -7.466  25.130 -15.709  0.00  0.00     0.163 HD
BRANCH  21  24
ATOM     24  CBJ K26 d          -8.487  26.763 -17.310  0.00  0.00     0.180 C 
BRANCH  24  25
ATOM     25  CBG K26 d          -9.792  27.204 -17.986  0.00  0.00     0.013 C 
ATOM     26  CAC K26 d          -9.482  28.128 -19.170  0.00  0.00     0.012 C 
BRANCH  25  27
ATOM     27  CAT K26 d         -10.602  25.988 -18.462  0.00  0.00     0.002 C 
ATOM     28  CAA K26 d         -11.972  25.894 -17.790  0.00  0.00     0.005 C 
ENDBRANCH  25  27
ENDBRANCH  24  25
BRANCH  24  29
ATOM     29  NAX K26 d          -8.124  25.373 -17.650  0.00  0.00    -0.348 N 
ATOM     30  CAZ K26 d          -6.953  25.062 -18.209  0.00  0.00     0.214 C 
ATOM     31  CAB K26 d          -6.719  23.569 -18.453  0.00  0.00     0.117 C 
ATOM     32  OAD K26 d          -6.106  25.887 -18.546  0.00  0.00    -0.274 OA
ATOM     33  H   K26 d          -8.790  24.626 -17.452  0.00  0.00     0.163 HD
ENDBRANCH  24  29
ENDBRANCH  21  24
ENDBRANCH   1  20
BRANCH   1  34
ATOM     34  CB  K26 d          -8.679  24.400 -13.294  0.00  0.00     0.073 C 
BRANCH  34  35
ATOM     35  CG  K26 d          -9.951  24.798 -12.528  0.00  0.00    -0.056 A 
ATOM     36  CD1 K26 d          -9.848  25.402 -11.276  0.00  0.00     0.010 A 
ATOM     37  CE1 K26 d         -11.001  25.781 -10.583  0.00  0.00     0.037 A 
ATOM     38  CZ  K26 d         -12.260  25.558 -11.143  0.00  0.00     0.065 A 
ATOM     39  CE2 K26 d         -12.361  24.960 -12.398  0.00  0.00     0.037 A 
ATOM     40  CD2 K26 d         -11.209  24.584 -13.094  0.00  0.00     0.010 A 
BRANCH  38  41
ATOM     41  OH  K26 d         -13.387  25.921 -10.457  0.00  0.00    -0.361 OA
ATOM     42  H   K26 d         -14.062  26.202 -11.078  0.00  0.00     0.217 HD
ENDBRANCH  38  41
ENDBRANCH  34  35
ENDBRANCH   1  34
TORSDOF 14
ENDMDL
MODEL 9
REMARK VINA RESULT:      -8.2      2.134      6.530
REMARK  14 active torsions:
REMARK  status: ('A' for Active; 'I' for Inactive)
REMARK    1  A    between atoms: CBD_3  and  OAI_4 
REMARK    2  A    between atoms: CBF_7  and  CAV_8 
REMARK    3  A    between atoms: CAV_8  and  CBI_9 
REMARK    4  A    between atoms: CBI_9  and  PBK_10 
REMARK    5  A    between atoms: CBI_9  and  NAY_14 
REMARK       I    between atoms: NAY_14  and  C_15 
REMARK    6  A    between atoms: C_15  and  CA_17 
REMARK    7  A    between atoms: CA_17  and  N_18 
REMARK    8  A    between atoms: CA_17  and  CB_30 
REMARK       I    between atoms: N_18  and  CBB_19 
REMARK    9  A    between atoms: CBB_19  and  CBJ_21 
REMARK   10  A    between atoms: CBJ_21  and  CBG_22 
REMARK   11  A    between atoms: CBJ_21  and  NAX_26 
REMARK   12  A    between atoms: CBG_22  and  CAT_24 
REMARK       I    between atoms: NAX_26  and  CAZ_27 
REMARK   13  A    between atoms: CB_30  and  CG_31 
REMARK   14  A    between atoms: CZ_34  and  OH_35 
ROOT
ATOM      1  CA  K26 d          -7.701  24.932 -11.633  0.00  0.00     0.180 C 
ENDROOT
BRANCH   1   2
ATOM      2  C   K26 d          -8.900  25.329 -12.499  0.00  0.00     0.241 C 
ATOM      3  NAY K26 d          -9.873  24.418 -12.579  0.00  0.00    -0.342 N 
ATOM      4  H   K26 d          -9.805  23.574 -12.008  0.00  0.00     0.163 HD
ATOM      5  O   K26 d          -8.896  26.410 -13.091  0.00  0.00    -0.271 OA
BRANCH   3   6
ATOM      6  CBI K26 d         -11.039  24.588 -13.460  0.00  0.00     0.219 C 
BRANCH   6   7
ATOM      7  CAV K26 d         -11.074  23.390 -14.438  0.00  0.00     0.078 C 
BRANCH   7   8
ATOM      8  CBF K26 d         -10.139  23.610 -15.638  0.00  0.00    -0.055 A 
ATOM      9  CAR K26 d         -10.497  24.524 -16.626  0.00  0.00     0.010 A 
ATOM     10  CAN K26 d          -9.659  24.747 -17.715  0.00  0.00     0.037 A 
ATOM     11  CBD K26 d          -8.453  24.054 -17.820  0.00  0.00     0.065 A 
ATOM     12  CAO K26 d          -8.078  23.140 -16.830  0.00  0.00     0.037 A 
ATOM     13  CAS K26 d          -8.924  22.918 -15.743  0.00  0.00     0.010 A 
BRANCH  11  14
ATOM     14  OAI K26 d          -7.647  24.281 -18.892  0.00  0.00    -0.361 OA
ATOM     15  H   K26 d          -7.644  23.507 -19.460  0.00  0.00     0.217 HD
ENDBRANCH  11  14
ENDBRANCH   7   8
ENDBRANCH   6   7
BRANCH   6  16
ATOM     16  PBK K26 d         -12.591  24.735 -12.476  0.00  0.00     0.283 P 
ATOM     17  OAJ K26 d         -12.133  25.013 -10.986  0.00  0.00    -0.638 OA
ATOM     18  OAK K26 d         -13.278  26.096 -13.056  0.00  0.00    -0.638 OA
ATOM     19  OAG K26 d         -13.469  23.540 -12.581  0.00  0.00    -0.638 OA
ENDBRANCH   6  16
ENDBRANCH   3   6
ENDBRANCH   1   2
BRANCH   1  20
ATOM     20  N   K26 d          -8.022  25.206 -10.218  0.00  0.00    -0.346 N 
ATOM     21  CBB K26 d          -7.105  25.426  -9.266  0.00  0.00     0.241 C 
ATOM     22  OAF K26 d          -5.887  25.400  -9.445  0.00  0.00    -0.271 OA
ATOM     23  H   K26 d          -9.005  25.230  -9.947  0.00  0.00     0.163 HD
BRANCH  21  24
ATOM     24  CBJ K26 d          -7.686  25.638  -7.857  0.00  0.00     0.180 C 
BRANCH  24  25
ATOM     25  CBG K26 d          -6.670  25.347  -6.746  0.00  0.00     0.013 C 
ATOM     26  CAC K26 d          -6.041  26.657  -6.256  0.00  0.00     0.012 C 
BRANCH  25  27
ATOM     27  CAT K26 d          -7.334  24.607  -5.573  0.00  0.00     0.002 C 
ATOM     28  CAA K26 d          -6.462  24.592  -4.318  0.00  0.00     0.005 C 
ENDBRANCH  25  27
ENDBRANCH  24  25
BRANCH  24  29
ATOM     29  NAX K26 d          -8.882  24.778  -7.759  0.00  0.00    -0.348 N 
ATOM     30  CAZ K26 d         -10.113  25.246  -7.977  0.00  0.00     0.214 C 
ATOM     31  CAB K26 d         -11.235  24.210  -7.879  0.00  0.00     0.117 C 
ATOM     32  OAD K26 d         -10.373  26.424  -8.212  0.00  0.00    -0.274 OA
ATOM     33  H   K26 d          -8.765  23.794  -7.517  0.00  0.00     0.163 HD
ENDBRANCH  24  29
ENDBRANCH  21  24
ENDBRANCH   1  20
BRANCH   1  34
ATOM     34  CB  K26 d          -7.339  23.462 -11.794  0.00  0.00     0.073 C 
BRANCH  34  35
ATOM     35  CG  K26 d          -5.909  23.361 -12.350  0.00  0.00    -0.056 A 
ATOM     36  CD1 K26 d          -4.888  22.851 -11.552  0.00  0.00     0.010 A 
ATOM     37  CE1 K26 d          -3.589  22.742 -12.058  0.00  0.00     0.037 A 
ATOM     38  CZ  K26 d          -3.311  23.141 -13.366  0.00  0.00     0.065 A 
ATOM     39  CE2 K26 d          -4.336  23.645 -14.166  0.00  0.00     0.037 A 
ATOM     40  CD2 K26 d          -5.635  23.751 -13.662  0.00  0.00     0.010 A 
BRANCH  38  41
ATOM     41  OH  K26 d          -2.037  23.043 -13.854  0.00  0.00    -0.361 OA
ATOM     42  H   K26 d          -1.522  23.796 -13.556  0.00  0.00     0.217 HD
ENDBRANCH  38  41
ENDBRANCH  34  35
ENDBRANCH   1  34
TORSDOF 14
ENDMDL
MODEL 10
REMARK VINA RESULT:      -8.2      2.568      8.220
REMARK  14 active torsions:
REMARK  status: ('A' for Active; 'I' for Inactive)
REMARK    1  A    between atoms: CBD_3  and  OAI_4 
REMARK    2  A    between atoms: CBF_7  and  CAV_8 
REMARK    3  A    between atoms: CAV_8  and  CBI_9 
REMARK    4  A    between atoms: CBI_9  and  PBK_10 
REMARK    5  A    between atoms: CBI_9  and  NAY_14 
REMARK       I    between atoms: NAY_14  and  C_15 
REMARK    6  A    between atoms: C_15  and  CA_17 
REMARK    7  A    between atoms: CA_17  and  N_18 
REMARK    8  A    between atoms: CA_17  and  CB_30 
REMARK       I    between atoms: N_18  and  CBB_19 
REMARK    9  A    between atoms: CBB_19  and  CBJ_21 
REMARK   10  A    between atoms: CBJ_21  and  CBG_22 
REMARK   11  A    between atoms: CBJ_21  and  NAX_26 
REMARK   12  A    between atoms: CBG_22  and  CAT_24 
REMARK       I    between atoms: NAX_26  and  CAZ_27 
REMARK   13  A    between atoms: CB_30  and  CG_31 
REMARK   14  A    between atoms: CZ_34  and  OH_35 
ROOT
ATOM      1  CA  K26 d          -7.917  24.635 -12.266  0.00  0.00     0.180 C 
ENDROOT
BRANCH   1   2
ATOM      2  C   K26 d          -7.818  23.871 -13.589  0.00  0.00     0.241 C 
ATOM      3  NAY K26 d          -6.950  24.371 -14.473  0.00  0.00    -0.342 N 
ATOM      4  H   K26 d          -6.359  25.155 -14.194  0.00  0.00     0.163 HD
ATOM      5  O   K26 d          -8.541  22.894 -13.786  0.00  0.00    -0.271 OA
BRANCH   3   6
ATOM      6  CBI K26 d          -6.817  23.830 -15.836  0.00  0.00     0.219 C 
BRANCH   6   7
ATOM      7  CAV K26 d          -7.071  24.985 -16.832  0.00  0.00     0.078 C 
BRANCH   7   8
ATOM      8  CBF K26 d          -8.573  25.222 -17.055  0.00  0.00    -0.055 A 
ATOM      9  CAR K26 d          -9.008  26.458 -17.527  0.00  0.00     0.010 A 
ATOM     10  CAN K26 d         -10.362  26.691 -17.748  0.00  0.00     0.037 A 
ATOM     11  CBD K26 d         -11.292  25.682 -17.497  0.00  0.00     0.065 A 
ATOM     12  CAO K26 d         -10.868  24.433 -17.032  0.00  0.00     0.037 A 
ATOM     13  CAS K26 d          -9.509  24.208 -16.809  0.00  0.00     0.010 A 
BRANCH  11  14
ATOM     14  OAI K26 d         -12.613  25.926 -17.716  0.00  0.00    -0.361 OA
ATOM     15  H   K26 d         -12.962  26.460 -16.998  0.00  0.00     0.217 HD
ENDBRANCH  11  14
ENDBRANCH   7   8
ENDBRANCH   6   7
BRANCH   6  16
ATOM     16  PBK K26 d          -5.164  23.049 -16.074  0.00  0.00     0.283 P 
ATOM     17  OAJ K26 d          -4.102  24.175 -15.740  0.00  0.00    -0.638 OA
ATOM     18  OAK K26 d          -5.101  21.928 -14.890  0.00  0.00    -0.638 OA
ATOM     19  OAG K26 d          -4.973  22.482 -17.435  0.00  0.00    -0.638 OA
ENDBRANCH   6  16
ENDBRANCH   3   6
ENDBRANCH   1   2
BRANCH   1  20
ATOM     20  N   K26 d          -9.315  24.589 -11.790  0.00  0.00    -0.346 N 
ATOM     21  CBB K26 d         -10.214  25.560 -11.997  0.00  0.00     0.241 C 
ATOM     22  OAF K26 d          -9.982  26.618 -12.583  0.00  0.00    -0.271 OA
ATOM     23  H   K26 d          -9.614  23.765 -11.270  0.00  0.00     0.163 HD
BRANCH  21  24
ATOM     24  CBJ K26 d         -11.590  25.302 -11.360  0.00  0.00     0.180 C 
BRANCH  24  25
ATOM     25  CBG K26 d         -11.794  26.077 -10.052  0.00  0.00     0.013 C 
ATOM     26  CAC K26 d         -13.098  25.634  -9.378  0.00  0.00     0.012 C 
BRANCH  25  27
ATOM     27  CAT K26 d         -10.607  25.867  -9.098  0.00  0.00     0.002 C 
ATOM     28  CAA K26 d         -10.858  24.752  -8.083  0.00  0.00     0.005 C 
ENDBRANCH  25  27
ENDBRANCH  24  25
BRANCH  24  29
ATOM     29  NAX K26 d         -11.700  23.842 -11.166  0.00  0.00    -0.348 N 
ATOM     30  CAZ K26 d         -12.685  23.126 -11.712  0.00  0.00     0.214 C 
ATOM     31  CAB K26 d         -12.623  21.620 -11.450  0.00  0.00     0.117 C 
ATOM     32  OAD K26 d         -13.613  23.607 -12.361  0.00  0.00    -0.274 OA
ATOM     33  H   K26 d         -11.000  23.366 -10.598  0.00  0.00     0.163 HD
ENDBRANCH  24  29
ENDBRANCH  21  24
ENDBRANCH   1  20
BRANCH   1  34
ATOM     34  CB  K26 d          -7.000  24.055 -11.198  0.00  0.00     0.073 C 
BRANCH  34  35
ATOM     35  CG  K26 d          -7.047  24.961  -9.957  0.00  0.00    -0.056 A 
ATOM     36  CD1 K26 d          -7.013  26.346 -10.106  0.00  0.00     0.010 A 
ATOM     37  CE1 K26 d          -7.072  27.175  -8.983  0.00  0.00     0.037 A 
ATOM     38  CZ  K26 d          -7.168  26.619  -7.706  0.00  0.00     0.065 A 
ATOM     39  CE2 K26 d          -7.207  25.233  -7.559  0.00  0.00     0.037 A 
ATOM     40  CD2 K26 d          -7.152  24.404  -8.682  0.00  0.00     0.010 A 
BRANCH  38  41
ATOM     41  OH  K26 d          -7.214  27.434  -6.608  0.00  0.00    -0.361 OA
ATOM     42  H   K26 d          -7.649  26.972  -5.887  0.00  0.00     0.217 HD
ENDBRANCH  38  41
ENDBRANCH  34  35
ENDBRANCH   1  34
TORSDOF 14
ENDMDL
