MODEL 1
REMARK VINA RESULT:     -10.9      0.000      0.000
REMARK  4 active torsions:
REMARK  status: ('A' for Active; 'I' for Inactive)
REMARK    1  A    between atoms: N16_6  and  C12_7 
REMARK    2  A    between atoms: C9_12  and  N7_13 
REMARK    3  A    between atoms: N7_13  and  C4_14 
REMARK    4  A    between atoms: C6_19  and  C15_20 
ROOT
ATOM      1  N7  Y8L d          23.858  29.643  29.170  0.00  0.00    -0.188 N 
ATOM      2  H   Y8L d          23.666  30.004  30.105  0.00  0.00     0.184 HD
ENDROOT
BRANCH   1   3
ATOM      3  C9  Y8L d          23.234  28.498  28.836  0.00  0.00     0.049 A 
ATOM      4  C14 Y8L d          22.144  27.983  29.521  0.00  0.00     0.032 A 
ATOM      5  C13 Y8L d          21.521  26.800  29.097  0.00  0.00     0.031 A 
ATOM      6  C12 Y8L d          21.993  26.097  27.986  0.00  0.00     0.030 A 
ATOM      7  C11 Y8L d          23.078  26.609  27.280  0.00  0.00     0.031 A 
ATOM      8  C10 Y8L d          23.669  27.806  27.702  0.00  0.00     0.032 A 
BRANCH   6   9
ATOM      9  N16 Y8L d          21.397  24.879  27.590  0.00  0.00    -0.378 N 
ATOM     10  C17 Y8L d          22.272  23.767  27.171  0.00  0.00     0.150 C 
ATOM     11  C18 Y8L d          21.578  22.639  26.384  0.00  0.00     0.252 C 
ATOM     12  N19 Y8L d          20.139  22.879  26.199  0.00  0.00    -0.072 N 
ATOM     13  C20 Y8L d          19.561  23.231  27.489  0.00  0.00     0.252 C 
ATOM     14  H   Y8L d          19.689  22.039  25.833  0.00  0.00     0.277 HD
ATOM     15  H   Y8L d          19.995  23.639  25.534  0.00  0.00     0.277 HD
ATOM     16  C21 Y8L d          19.953  24.676  27.803  0.00  0.00     0.150 C 
ENDBRANCH   6   9
ENDBRANCH   1   3
BRANCH   1  17
ATOM     17  C4  Y8L d          24.706  30.368  28.416  0.00  0.00     0.727 A 
ATOM     18  N5  Y8L d          25.714  29.852  27.680  0.00  0.00    -0.061 NA
ATOM     19  C6  Y8L d          26.542  30.633  26.956  0.00  0.00     0.096 A 
ATOM     20  C1  Y8L d          26.277  32.002  26.897  0.00  0.00     0.053 A 
ATOM     21  C2  Y8L d          25.210  32.508  27.619  0.00  0.00     0.139 A 
ATOM     22  N3  Y8L d          24.457  31.689  28.339  0.00  0.00    -0.075 NA
BRANCH  19  23
ATOM     23  C15 Y8L d          27.575  30.105  26.164  0.00  0.00     0.062 A 
ATOM     24  S23 Y8L d          29.180  30.712  26.029  0.00  0.00    -0.025 SA
ATOM     25  C24 Y8L d          29.622  29.604  24.826  0.00  0.00     0.291 A 
ATOM     26  O28 Y8L d          30.735  29.502  24.316  0.00  0.00    -0.259 OA
ATOM     27  N25 Y8L d          28.597  28.788  24.568  0.00  0.00    -0.316 N 
ATOM     28  C29 Y8L d          28.703  27.686  23.569  0.00  0.00     0.160 C 
ATOM     29  C26 Y8L d          27.478  29.031  25.263  0.00  0.00     0.030 A 
ATOM     30  C27 Y8L d          26.223  28.174  25.075  0.00  0.00     0.070 C 
ENDBRANCH  19  23
ENDBRANCH   1  17
TORSDOF 4
ENDMDL
MODEL 2
REMARK VINA RESULT:      -9.7      3.317      5.853
REMARK  4 active torsions:
REMARK  status: ('A' for Active; 'I' for Inactive)
REMARK    1  A    between atoms: N16_6  and  C12_7 
REMARK    2  A    between atoms: C9_12  and  N7_13 
REMARK    3  A    between atoms: N7_13  and  C4_14 
REMARK    4  A    between atoms: C6_19  and  C15_20 
ROOT
ATOM      1  N7  Y8L d          29.011  27.360  23.377  0.00  0.00    -0.188 N 
ATOM      2  H   Y8L d          29.678  27.315  22.606  0.00  0.00     0.184 HD
ENDROOT
BRANCH   1   3
ATOM      3  C9  Y8L d          28.162  26.321  23.487  0.00  0.00     0.049 A 
ATOM      4  C14 Y8L d          27.702  25.823  24.697  0.00  0.00     0.032 A 
ATOM      5  C13 Y8L d          26.791  24.758  24.737  0.00  0.00     0.031 A 
ATOM      6  C12 Y8L d          26.337  24.155  23.562  0.00  0.00     0.030 A 
ATOM      7  C11 Y8L d          26.779  24.653  22.340  0.00  0.00     0.031 A 
ATOM      8  C10 Y8L d          27.667  25.735  22.319  0.00  0.00     0.032 A 
BRANCH   6   9
ATOM      9  N16 Y8L d          25.459  23.049  23.605  0.00  0.00    -0.378 N 
ATOM     10  C17 Y8L d          24.230  23.154  24.416  0.00  0.00     0.150 C 
ATOM     11  C18 Y8L d          23.539  21.817  24.745  0.00  0.00     0.252 C 
ATOM     12  N19 Y8L d          24.241  20.659  24.171  0.00  0.00    -0.072 N 
ATOM     13  C20 Y8L d          24.507  20.932  22.766  0.00  0.00     0.252 C 
ATOM     14  H   Y8L d          23.665  19.822  24.261  0.00  0.00     0.277 HD
ATOM     15  H   Y8L d          25.118  20.502  24.668  0.00  0.00     0.277 HD
ATOM     16  C21 Y8L d          25.675  21.916  22.688  0.00  0.00     0.150 C 
ENDBRANCH   6   9
ENDBRANCH   1   3
BRANCH   1  17
ATOM     17  C4  Y8L d          29.083  28.450  24.163  0.00  0.00     0.727 A 
ATOM     18  N5  Y8L d          28.049  28.963  24.864  0.00  0.00    -0.061 NA
ATOM     19  C6  Y8L d          28.180  30.070  25.623  0.00  0.00     0.096 A 
ATOM     20  C1  Y8L d          29.449  30.636  25.755  0.00  0.00     0.053 A 
ATOM     21  C2  Y8L d          30.507  30.069  25.067  0.00  0.00     0.139 A 
ATOM     22  N3  Y8L d          30.302  29.002  24.310  0.00  0.00    -0.075 NA
BRANCH  19  23
ATOM     23  C15 Y8L d          27.118  30.594  26.380  0.00  0.00     0.062 A 
ATOM     24  S23 Y8L d          26.757  32.258  26.631  0.00  0.00    -0.025 SA
ATOM     25  C24 Y8L d          25.493  31.941  27.712  0.00  0.00     0.291 A 
ATOM     26  O28 Y8L d          24.770  32.783  28.240  0.00  0.00    -0.259 OA
ATOM     27  N25 Y8L d          25.335  30.622  27.846  0.00  0.00    -0.316 N 
ATOM     28  C29 Y8L d          24.272  30.042  28.714  0.00  0.00     0.160 C 
ATOM     29  C26 Y8L d          26.195  29.866  27.150  0.00  0.00     0.030 A 
ATOM     30  C27 Y8L d          26.131  28.337  27.201  0.00  0.00     0.070 C 
ENDBRANCH  19  23
ENDBRANCH   1  17
TORSDOF 4
ENDMDL
MODEL 3
REMARK VINA RESULT:      -9.3      2.657      4.391
REMARK  4 active torsions:
REMARK  status: ('A' for Active; 'I' for Inactive)
REMARK    1  A    between atoms: N16_6  and  C12_7 
REMARK    2  A    between atoms: C9_12  and  N7_13 
REMARK    3  A    between atoms: N7_13  and  C4_14 
REMARK    4  A    between atoms: C6_19  and  C15_20 
ROOT
ATOM      1  N7  Y8L d          23.450  26.206  25.783  0.00  0.00    -0.188 N 
ATOM      2  H   Y8L d          22.841  26.066  24.977  0.00  0.00     0.184 HD
ENDROOT
BRANCH   1   3
ATOM      3  C9  Y8L d          22.851  26.197  26.989  0.00  0.00     0.049 A 
ATOM      4  C14 Y8L d          23.102  27.130  27.984  0.00  0.00     0.032 A 
ATOM      5  C13 Y8L d          22.416  27.081  29.206  0.00  0.00     0.031 A 
ATOM      6  C12 Y8L d          21.476  26.080  29.463  0.00  0.00     0.030 A 
ATOM      7  C11 Y8L d          21.203  25.145  28.469  0.00  0.00     0.031 A 
ATOM      8  C10 Y8L d          21.878  25.227  27.245  0.00  0.00     0.032 A 
BRANCH   6   9
ATOM      9  N16 Y8L d          20.823  26.000  30.713  0.00  0.00    -0.378 N 
ATOM     10  C17 Y8L d          19.595  25.188  30.819  0.00  0.00     0.150 C 
ATOM     11  C18 Y8L d          18.725  25.461  32.061  0.00  0.00     0.252 C 
ATOM     12  N19 Y8L d          19.296  26.496  32.936  0.00  0.00    -0.072 N 
ATOM     13  C20 Y8L d          20.697  26.179  33.172  0.00  0.00     0.252 C 
ATOM     14  H   Y8L d          18.790  26.522  33.822  0.00  0.00     0.277 HD
ATOM     15  H   Y8L d          19.216  27.411  32.492  0.00  0.00     0.277 HD
ATOM     16  C21 Y8L d          21.484  26.544  31.913  0.00  0.00     0.150 C 
ENDBRANCH   6   9
ENDBRANCH   1   3
BRANCH   1  17
ATOM     17  C4  Y8L d          24.758  26.378  25.517  0.00  0.00     0.727 A 
ATOM     18  N5  Y8L d          25.385  27.573  25.474  0.00  0.00    -0.061 NA
ATOM     19  C6  Y8L d          26.697  27.682  25.185  0.00  0.00     0.096 A 
ATOM     20  C1  Y8L d          27.438  26.511  25.023  0.00  0.00     0.053 A 
ATOM     21  C2  Y8L d          26.790  25.292  25.117  0.00  0.00     0.139 A 
ATOM     22  N3  Y8L d          25.491  25.257  25.369  0.00  0.00    -0.075 NA
BRANCH  19  23
ATOM     23  C15 Y8L d          27.365  28.919  25.168  0.00  0.00     0.062 A 
ATOM     24  S23 Y8L d          28.673  29.366  24.144  0.00  0.00    -0.025 SA
ATOM     25  C24 Y8L d          28.898  30.869  24.892  0.00  0.00     0.291 A 
ATOM     26  O28 Y8L d          29.715  31.724  24.558  0.00  0.00    -0.259 OA
ATOM     27  N25 Y8L d          27.989  31.031  25.857  0.00  0.00    -0.316 N 
ATOM     28  C29 Y8L d          27.922  32.278  26.671  0.00  0.00     0.160 C 
ATOM     29  C26 Y8L d          27.152  30.001  26.039  0.00  0.00     0.030 A 
ATOM     30  C27 Y8L d          26.055  30.046  27.106  0.00  0.00     0.070 C 
ENDBRANCH  19  23
ENDBRANCH   1  17
TORSDOF 4
ENDMDL
MODEL 4
REMARK VINA RESULT:      -9.2      5.076      9.664
REMARK  4 active torsions:
REMARK  status: ('A' for Active; 'I' for Inactive)
REMARK    1  A    between atoms: N16_6  and  C12_7 
REMARK    2  A    between atoms: C9_12  and  N7_13 
REMARK    3  A    between atoms: N7_13  and  C4_14 
REMARK    4  A    between atoms: C6_19  and  C15_20 
ROOT
ATOM      1  N7  Y8L d          22.881  28.956  29.208  0.00  0.00    -0.188 N 
ATOM      2  H   Y8L d          22.281  29.731  29.491  0.00  0.00     0.184 HD
ENDROOT
BRANCH   1   3
ATOM      3  C9  Y8L d          24.011  29.287  28.556  0.00  0.00     0.049 A 
ATOM      4  C14 Y8L d          24.784  28.384  27.842  0.00  0.00     0.032 A 
ATOM      5  C13 Y8L d          25.934  28.805  27.158  0.00  0.00     0.031 A 
ATOM      6  C12 Y8L d          26.344  30.140  27.194  0.00  0.00     0.030 A 
ATOM      7  C11 Y8L d          25.570  31.060  27.895  0.00  0.00     0.031 A 
ATOM      8  C10 Y8L d          24.411  30.626  28.548  0.00  0.00     0.032 A 
BRANCH   6   9
ATOM      9  N16 Y8L d          27.530  30.553  26.547  0.00  0.00    -0.378 N 
ATOM     10  C17 Y8L d          27.759  31.998  26.347  0.00  0.00     0.150 C 
ATOM     11  C18 Y8L d          28.835  32.359  25.306  0.00  0.00     0.252 C 
ATOM     12  N19 Y8L d          29.455  31.173  24.696  0.00  0.00    -0.072 N 
ATOM     13  C20 Y8L d          29.851  30.262  25.760  0.00  0.00     0.252 C 
ATOM     14  H   Y8L d          30.272  31.448  24.150  0.00  0.00     0.277 HD
ATOM     15  H   Y8L d          28.790  30.714  24.073  0.00  0.00     0.277 HD
ATOM     16  C21 Y8L d          28.593  29.568  26.282  0.00  0.00     0.150 C 
ENDBRANCH   6   9
ENDBRANCH   1   3
BRANCH   1  17
ATOM     17  C4  Y8L d          22.448  27.722  29.530  0.00  0.00     0.727 A 
ATOM     18  N5  Y8L d          21.663  27.435  30.591  0.00  0.00    -0.061 NA
ATOM     19  C6  Y8L d          21.275  26.174  30.871  0.00  0.00     0.096 A 
ATOM     20  C1  Y8L d          21.622  25.161  29.977  0.00  0.00     0.053 A 
ATOM     21  C2  Y8L d          22.388  25.481  28.869  0.00  0.00     0.139 A 
ATOM     22  N3  Y8L d          22.765  26.734  28.672  0.00  0.00    -0.075 NA
BRANCH  19  23
ATOM     23  C15 Y8L d          20.434  25.868  31.954  0.00  0.00     0.062 A 
ATOM     24  S23 Y8L d          18.809  25.306  31.867  0.00  0.00    -0.025 SA
ATOM     25  C24 Y8L d          18.579  25.354  33.544  0.00  0.00     0.291 A 
ATOM     26  O28 Y8L d          17.563  25.007  34.141  0.00  0.00    -0.259 OA
ATOM     27  N25 Y8L d          19.706  25.750  34.141  0.00  0.00    -0.316 N 
ATOM     28  C29 Y8L d          19.813  25.858  35.624  0.00  0.00     0.160 C 
ATOM     29  C26 Y8L d          20.722  26.041  33.318  0.00  0.00     0.030 A 
ATOM     30  C27 Y8L d          22.078  26.503  33.860  0.00  0.00     0.070 C 
ENDBRANCH  19  23
ENDBRANCH   1  17
TORSDOF 4
ENDMDL
MODEL 5
REMARK VINA RESULT:      -8.9      5.835      9.353
REMARK  4 active torsions:
REMARK  status: ('A' for Active; 'I' for Inactive)
REMARK    1  A    between atoms: N16_6  and  C12_7 
REMARK    2  A    between atoms: C9_12  and  N7_13 
REMARK    3  A    between atoms: N7_13  and  C4_14 
REMARK    4  A    between atoms: C6_19  and  C15_20 
ROOT
ATOM      1  N7  Y8L d          27.340  24.726  24.123  0.00  0.00    -0.188 N 
ATOM      2  H   Y8L d          28.275  24.457  23.818  0.00  0.00     0.184 HD
ENDROOT
BRANCH   1   3
ATOM      3  C9  Y8L d          27.232  25.931  24.714  0.00  0.00     0.049 A 
ATOM      4  C14 Y8L d          27.231  26.122  26.087  0.00  0.00     0.032 A 
ATOM      5  C13 Y8L d          27.149  27.411  26.634  0.00  0.00     0.031 A 
ATOM      6  C12 Y8L d          27.045  28.536  25.813  0.00  0.00     0.030 A 
ATOM      7  C11 Y8L d          27.058  28.361  24.432  0.00  0.00     0.031 A 
ATOM      8  C10 Y8L d          27.169  27.069  23.905  0.00  0.00     0.032 A 
BRANCH   6   9
ATOM      9  N16 Y8L d          26.911  29.829  26.365  0.00  0.00    -0.378 N 
ATOM     10  C17 Y8L d          25.984  30.022  27.498  0.00  0.00     0.150 C 
ATOM     11  C18 Y8L d          25.582  31.481  27.783  0.00  0.00     0.252 C 
ATOM     12  N19 Y8L d          26.216  32.435  26.861  0.00  0.00    -0.072 N 
ATOM     13  C20 Y8L d          27.642  32.145  26.807  0.00  0.00     0.252 C 
ATOM     14  H   Y8L d          26.067  33.389  27.188  0.00  0.00     0.277 HD
ATOM     15  H   Y8L d          25.807  32.345  25.931  0.00  0.00     0.277 HD
ATOM     16  C21 Y8L d          27.839  30.895  25.949  0.00  0.00     0.150 C 
ENDBRANCH   6   9
ENDBRANCH   1   3
BRANCH   1  17
ATOM     17  C4  Y8L d          26.358  23.835  23.888  0.00  0.00     0.727 A 
ATOM     18  N5  Y8L d          26.530  22.645  23.274  0.00  0.00    -0.061 NA
ATOM     19  C6  Y8L d          25.503  21.800  23.053  0.00  0.00     0.096 A 
ATOM     20  C1  Y8L d          24.248  22.136  23.564  0.00  0.00     0.053 A 
ATOM     21  C2  Y8L d          24.100  23.338  24.233  0.00  0.00     0.139 A 
ATOM     22  N3  Y8L d          25.144  24.138  24.385  0.00  0.00    -0.075 NA
BRANCH  19  23
ATOM     23  C15 Y8L d          25.676  20.547  22.442  0.00  0.00     0.062 A 
ATOM     24  S23 Y8L d          25.613  19.010  23.214  0.00  0.00    -0.025 SA
ATOM     25  C24 Y8L d          26.053  18.160  21.817  0.00  0.00     0.291 A 
ATOM     26  O28 Y8L d          26.145  16.938  21.717  0.00  0.00    -0.259 OA
ATOM     27  N25 Y8L d          26.208  19.013  20.802  0.00  0.00    -0.316 N 
ATOM     28  C29 Y8L d          26.567  18.547  19.432  0.00  0.00     0.160 C 
ATOM     29  C26 Y8L d          26.019  20.305  21.101  0.00  0.00     0.030 A 
ATOM     30  C27 Y8L d          26.157  21.397  20.037  0.00  0.00     0.070 C 
ENDBRANCH  19  23
ENDBRANCH   1  17
TORSDOF 4
ENDMDL
MODEL 6
REMARK VINA RESULT:      -8.8      3.818      8.420
REMARK  4 active torsions:
REMARK  status: ('A' for Active; 'I' for Inactive)
REMARK    1  A    between atoms: N16_6  and  C12_7 
REMARK    2  A    between atoms: C9_12  and  N7_13 
REMARK    3  A    between atoms: N7_13  and  C4_14 
REMARK    4  A    between atoms: C6_19  and  C15_20 
ROOT
ATOM      1  N7  Y8L d          22.326  28.228  29.296  0.00  0.00    -0.188 N 
ATOM      2  H   Y8L d          21.637  28.978  29.348  0.00  0.00     0.184 HD
ENDROOT
BRANCH   1   3
ATOM      3  C9  Y8L d          23.458  28.507  28.624  0.00  0.00     0.049 A 
ATOM      4  C14 Y8L d          24.095  27.612  27.776  0.00  0.00     0.032 A 
ATOM      5  C13 Y8L d          25.256  27.982  27.081  0.00  0.00     0.031 A 
ATOM      6  C12 Y8L d          25.814  29.252  27.237  0.00  0.00     0.030 A 
ATOM      7  C11 Y8L d          25.178  30.166  28.073  0.00  0.00     0.031 A 
ATOM      8  C10 Y8L d          24.005  29.788  28.738  0.00  0.00     0.032 A 
BRANCH   6   9
ATOM      9  N16 Y8L d          27.011  29.607  26.576  0.00  0.00    -0.378 N 
ATOM     10  C17 Y8L d          27.482  28.758  25.464  0.00  0.00     0.150 C 
ATOM     11  C18 Y8L d          28.956  28.951  25.062  0.00  0.00     0.252 C 
ATOM     12  N19 Y8L d          29.635  29.974  25.872  0.00  0.00    -0.072 N 
ATOM     13  C20 Y8L d          28.801  31.167  25.902  0.00  0.00     0.252 C 
ATOM     14  H   Y8L d          30.545  30.194  25.466  0.00  0.00     0.277 HD
ATOM     15  H   Y8L d          29.781  29.627  26.821  0.00  0.00     0.277 HD
ATOM     16  C21 Y8L d          27.640  30.908  26.862  0.00  0.00     0.150 C 
ENDBRANCH   6   9
ENDBRANCH   1   3
BRANCH   1  17
ATOM     17  C4  Y8L d          21.995  27.075  29.907  0.00  0.00     0.727 A 
ATOM     18  N5  Y8L d          22.013  25.859  29.320  0.00  0.00    -0.061 NA
ATOM     19  C6  Y8L d          21.655  24.740  29.982  0.00  0.00     0.096 A 
ATOM     20  C1  Y8L d          21.353  24.844  31.340  0.00  0.00     0.053 A 
ATOM     21  C2  Y8L d          21.386  26.091  31.939  0.00  0.00     0.139 A 
ATOM     22  N3  Y8L d          21.712  27.155  31.222  0.00  0.00    -0.075 NA
BRANCH  19  23
ATOM     23  C15 Y8L d          21.699  23.467  29.389  0.00  0.00     0.062 A 
ATOM     24  S23 Y8L d          22.706  22.151  29.852  0.00  0.00    -0.025 SA
ATOM     25  C24 Y8L d          22.206  21.165  28.570  0.00  0.00     0.291 A 
ATOM     26  O28 Y8L d          22.566  20.007  28.370  0.00  0.00    -0.259 OA
ATOM     27  N25 Y8L d          21.286  21.803  27.843  0.00  0.00    -0.316 N 
ATOM     28  C29 Y8L d          20.638  21.167  26.661  0.00  0.00     0.160 C 
ATOM     29  C26 Y8L d          20.992  23.046  28.249  0.00  0.00     0.030 A 
ATOM     30  C27 Y8L d          19.952  23.897  27.516  0.00  0.00     0.070 C 
ENDBRANCH  19  23
ENDBRANCH   1  17
TORSDOF 4
ENDMDL
MODEL 7
REMARK VINA RESULT:      -8.7      2.743      4.407
REMARK  4 active torsions:
REMARK  status: ('A' for Active; 'I' for Inactive)
REMARK    1  A    between atoms: N16_6  and  C12_7 
REMARK    2  A    between atoms: C9_12  and  N7_13 
REMARK    3  A    between atoms: N7_13  and  C4_14 
REMARK    4  A    between atoms: C6_19  and  C15_20 
ROOT
ATOM      1  N7  Y8L d          23.362  26.042  25.784  0.00  0.00    -0.188 N 
ATOM      2  H   Y8L d          22.727  26.019  24.986  0.00  0.00     0.184 HD
ENDROOT
BRANCH   1   3
ATOM      3  C9  Y8L d          22.798  25.884  26.996  0.00  0.00     0.049 A 
ATOM      4  C14 Y8L d          22.196  24.710  27.422  0.00  0.00     0.032 A 
ATOM      5  C13 Y8L d          21.657  24.605  28.712  0.00  0.00     0.031 A 
ATOM      6  C12 Y8L d          21.694  25.684  29.597  0.00  0.00     0.030 A 
ATOM      7  C11 Y8L d          22.308  26.865  29.189  0.00  0.00     0.031 A 
ATOM      8  C10 Y8L d          22.864  26.942  27.907  0.00  0.00     0.032 A 
BRANCH   6   9
ATOM      9  N16 Y8L d          21.106  25.594  30.879  0.00  0.00    -0.378 N 
ATOM     10  C17 Y8L d          21.538  26.543  31.923  0.00  0.00     0.150 C 
ATOM     11  C18 Y8L d          21.177  26.148  33.368  0.00  0.00     0.252 C 
ATOM     12  N19 Y8L d          20.444  24.874  33.440  0.00  0.00    -0.072 N 
ATOM     13  C20 Y8L d          19.352  24.916  32.478  0.00  0.00     0.252 C 
ATOM     14  H   Y8L d          20.074  24.738  34.381  0.00  0.00     0.277 HD
ATOM     15  H   Y8L d          21.071  24.099  33.224  0.00  0.00     0.277 HD
ATOM     16  C21 Y8L d          19.944  24.712  31.083  0.00  0.00     0.150 C 
ENDBRANCH   6   9
ENDBRANCH   1   3
BRANCH   1  17
ATOM     17  C4  Y8L d          24.665  26.228  25.501  0.00  0.00     0.727 A 
ATOM     18  N5  Y8L d          25.322  27.400  25.635  0.00  0.00    -0.061 NA
ATOM     19  C6  Y8L d          26.627  27.527  25.319  0.00  0.00     0.096 A 
ATOM     20  C1  Y8L d          27.330  26.384  24.935  0.00  0.00     0.053 A 
ATOM     21  C2  Y8L d          26.651  25.180  24.850  0.00  0.00     0.139 A 
ATOM     22  N3  Y8L d          25.361  25.132  25.141  0.00  0.00    -0.075 NA
BRANCH  19  23
ATOM     23  C15 Y8L d          27.328  28.734  25.483  0.00  0.00     0.062 A 
ATOM     24  S23 Y8L d          26.802  30.116  26.362  0.00  0.00    -0.025 SA
ATOM     25  C24 Y8L d          28.135  31.057  25.909  0.00  0.00     0.291 A 
ATOM     26  O28 Y8L d          28.364  32.206  26.279  0.00  0.00    -0.259 OA
ATOM     27  N25 Y8L d          28.959  30.332  25.148  0.00  0.00    -0.316 N 
ATOM     28  C29 Y8L d          30.238  30.890  24.624  0.00  0.00     0.160 C 
ATOM     29  C26 Y8L d          28.555  29.081  24.893  0.00  0.00     0.030 A 
ATOM     30  C27 Y8L d          29.400  28.131  24.039  0.00  0.00     0.070 C 
ENDBRANCH  19  23
ENDBRANCH   1  17
TORSDOF 4
ENDMDL
MODEL 8
REMARK VINA RESULT:      -8.6      3.083      3.994
REMARK  4 active torsions:
REMARK  status: ('A' for Active; 'I' for Inactive)
REMARK    1  A    between atoms: N16_6  and  C12_7 
REMARK    2  A    between atoms: C9_12  and  N7_13 
REMARK    3  A    between atoms: N7_13  and  C4_14 
REMARK    4  A    between atoms: C6_19  and  C15_20 
ROOT
ATOM      1  N7  Y8L d          23.379  27.006  28.018  0.00  0.00    -0.188 N 
ATOM      2  H   Y8L d          23.261  26.413  27.197  0.00  0.00     0.184 HD
ENDROOT
BRANCH   1   3
ATOM      3  C9  Y8L d          22.668  26.659  29.108  0.00  0.00     0.049 A 
ATOM      4  C14 Y8L d          22.193  27.567  30.042  0.00  0.00     0.032 A 
ATOM      5  C13 Y8L d          21.430  27.139  31.138  0.00  0.00     0.031 A 
ATOM      6  C12 Y8L d          21.144  25.785  31.331  0.00  0.00     0.030 A 
ATOM      7  C11 Y8L d          21.603  24.864  30.394  0.00  0.00     0.031 A 
ATOM      8  C10 Y8L d          22.340  25.314  29.291  0.00  0.00     0.032 A 
BRANCH   6   9
ATOM      9  N16 Y8L d          20.419  25.349  32.461  0.00  0.00    -0.378 N 
ATOM     10  C17 Y8L d          20.271  26.271  33.605  0.00  0.00     0.150 C 
ATOM     11  C18 Y8L d          19.838  25.617  34.931  0.00  0.00     0.252 C 
ATOM     12  N19 Y8L d          19.637  24.165  34.807  0.00  0.00    -0.072 N 
ATOM     13  C20 Y8L d          18.797  23.913  33.645  0.00  0.00     0.252 C 
ATOM     14  H   Y8L d          19.186  23.802  35.648  0.00  0.00     0.277 HD
ATOM     15  H   Y8L d          20.536  23.697  34.695  0.00  0.00     0.277 HD
ATOM     16  C21 Y8L d          19.657  24.090  32.393  0.00  0.00     0.150 C 
ENDBRANCH   6   9
ENDBRANCH   1   3
BRANCH   1  17
ATOM     17  C4  Y8L d          24.227  28.043  27.885  0.00  0.00     0.727 A 
ATOM     18  N5  Y8L d          25.312  28.052  27.082  0.00  0.00    -0.061 NA
ATOM     19  C6  Y8L d          26.134  29.118  27.004  0.00  0.00     0.096 A 
ATOM     20  C1  Y8L d          25.788  30.274  27.704  0.00  0.00     0.053 A 
ATOM     21  C2  Y8L d          24.645  30.264  28.486  0.00  0.00     0.139 A 
ATOM     22  N3  Y8L d          23.901  29.171  28.546  0.00  0.00    -0.075 NA
BRANCH  19  23
ATOM     23  C15 Y8L d          27.249  29.148  26.149  0.00  0.00     0.062 A 
ATOM     24  S23 Y8L d          27.938  27.813  25.311  0.00  0.00    -0.025 SA
ATOM     25  C24 Y8L d          29.233  28.715  24.698  0.00  0.00     0.291 A 
ATOM     26  O28 Y8L d          30.107  28.298  23.941  0.00  0.00    -0.259 OA
ATOM     27  N25 Y8L d          29.121  29.987  25.090  0.00  0.00    -0.316 N 
ATOM     28  C29 Y8L d          30.105  31.027  24.675  0.00  0.00     0.160 C 
ATOM     29  C26 Y8L d          28.070  30.256  25.876  0.00  0.00     0.030 A 
ATOM     30  C27 Y8L d          27.809  31.671  26.399  0.00  0.00     0.070 C 
ENDBRANCH  19  23
ENDBRANCH   1  17
TORSDOF 4
ENDMDL
MODEL 9
REMARK VINA RESULT:      -8.6      4.200      5.750
REMARK  4 active torsions:
REMARK  status: ('A' for Active; 'I' for Inactive)
REMARK    1  A    between atoms: N16_6  and  C12_7 
REMARK    2  A    between atoms: C9_12  and  N7_13 
REMARK    3  A    between atoms: N7_13  and  C4_14 
REMARK    4  A    between atoms: C6_19  and  C15_20 
ROOT
ATOM      1  N7  Y8L d          24.209  25.395  24.454  0.00  0.00    -0.188 N 
ATOM      2  H   Y8L d          23.590  25.728  23.715  0.00  0.00     0.184 HD
ENDROOT
BRANCH   1   3
ATOM      3  C9  Y8L d          24.604  24.111  24.364  0.00  0.00     0.049 A 
ATOM      4  C14 Y8L d          25.809  23.709  23.809  0.00  0.00     0.032 A 
ATOM      5  C13 Y8L d          26.171  22.355  23.778  0.00  0.00     0.031 A 
ATOM      6  C12 Y8L d          25.320  21.371  24.287  0.00  0.00     0.030 A 
ATOM      7  C11 Y8L d          24.113  21.760  24.860  0.00  0.00     0.031 A 
ATOM      8  C10 Y8L d          23.782  23.120  24.907  0.00  0.00     0.032 A 
BRANCH   6   9
ATOM      9  N16 Y8L d          25.663  20.003  24.210  0.00  0.00    -0.378 N 
ATOM     10  C17 Y8L d          25.936  19.271  25.462  0.00  0.00     0.150 C 
ATOM     11  C18 Y8L d          26.682  17.933  25.298  0.00  0.00     0.252 C 
ATOM     12  N19 Y8L d          26.983  17.621  23.892  0.00  0.00    -0.072 N 
ATOM     13  C20 Y8L d          25.766  17.795  23.111  0.00  0.00     0.252 C 
ATOM     14  H   Y8L d          27.314  16.659  23.812  0.00  0.00     0.277 HD
ATOM     15  H   Y8L d          27.712  18.244  23.545  0.00  0.00     0.277 HD
ATOM     16  C21 Y8L d          25.535  19.295  22.924  0.00  0.00     0.150 C 
ENDBRANCH   6   9
ENDBRANCH   1   3
BRANCH   1  17
ATOM     17  C4  Y8L d          24.535  26.291  25.405  0.00  0.00     0.727 A 
ATOM     18  N5  Y8L d          25.445  27.277  25.254  0.00  0.00    -0.061 NA
ATOM     19  C6  Y8L d          25.740  28.136  26.251  0.00  0.00     0.096 A 
ATOM     20  C1  Y8L d          25.007  28.051  27.435  0.00  0.00     0.053 A 
ATOM     21  C2  Y8L d          24.044  27.064  27.556  0.00  0.00     0.139 A 
ATOM     22  N3  Y8L d          23.829  26.231  26.550  0.00  0.00    -0.075 NA
BRANCH  19  23
ATOM     23  C15 Y8L d          26.662  29.184  26.094  0.00  0.00     0.062 A 
ATOM     24  S23 Y8L d          26.472  30.809  26.627  0.00  0.00    -0.025 SA
ATOM     25  C24 Y8L d          27.916  31.335  25.916  0.00  0.00     0.291 A 
ATOM     26  O28 Y8L d          28.383  32.469  25.988  0.00  0.00    -0.259 OA
ATOM     27  N25 Y8L d          28.530  30.304  25.329  0.00  0.00    -0.316 N 
ATOM     28  C29 Y8L d          29.844  30.459  24.643  0.00  0.00     0.160 C 
ATOM     29  C26 Y8L d          27.882  29.133  25.398  0.00  0.00     0.030 A 
ATOM     30  C27 Y8L d          28.466  27.863  24.774  0.00  0.00     0.070 C 
ENDBRANCH  19  23
ENDBRANCH   1  17
TORSDOF 4
ENDMDL
MODEL 10
REMARK VINA RESULT:      -8.4      4.730      9.395
REMARK  4 active torsions:
REMARK  status: ('A' for Active; 'I' for Inactive)
REMARK    1  A    between atoms: N16_6  and  C12_7 
REMARK    2  A    between atoms: C9_12  and  N7_13 
REMARK    3  A    between atoms: N7_13  and  C4_14 
REMARK    4  A    between atoms: C6_19  and  C15_20 
ROOT
ATOM      1  N7  Y8L d          22.145  25.913  27.660  0.00  0.00    -0.188 N 
ATOM      2  H   Y8L d          21.408  25.849  26.957  0.00  0.00     0.184 HD
ENDROOT
BRANCH   1   3
ATOM      3  C9  Y8L d          23.208  26.673  27.337  0.00  0.00     0.049 A 
ATOM      4  C14 Y8L d          23.642  27.755  28.088  0.00  0.00     0.032 A 
ATOM      5  C13 Y8L d          24.780  28.483  27.710  0.00  0.00     0.031 A 
ATOM      6  C12 Y8L d          25.494  28.153  26.556  0.00  0.00     0.030 A 
ATOM      7  C11 Y8L d          25.079  27.061  25.800  0.00  0.00     0.031 A 
ATOM      8  C10 Y8L d          23.957  26.329  26.209  0.00  0.00     0.032 A 
BRANCH   6   9
ATOM      9  N16 Y8L d          26.610  28.918  26.148  0.00  0.00    -0.378 N 
ATOM     10  C17 Y8L d          26.839  29.119  24.704  0.00  0.00     0.150 C 
ATOM     11  C18 Y8L d          28.251  29.598  24.319  0.00  0.00     0.252 C 
ATOM     12  N19 Y8L d          29.127  29.779  25.486  0.00  0.00    -0.072 N 
ATOM     13  C20 Y8L d          28.413  30.571  26.479  0.00  0.00     0.252 C 
ATOM     14  H   Y8L d          29.984  30.259  25.209  0.00  0.00     0.277 HD
ATOM     15  H   Y8L d          29.377  28.871  25.879  0.00  0.00     0.277 HD
ATOM     16  C21 Y8L d          27.385  29.664  27.156  0.00  0.00     0.150 C 
ENDBRANCH   6   9
ENDBRANCH   1   3
BRANCH   1  17
ATOM     17  C4  Y8L d          21.939  25.229  28.801  0.00  0.00     0.727 A 
ATOM     18  N5  Y8L d          21.470  25.766  29.947  0.00  0.00    -0.061 NA
ATOM     19  C6  Y8L d          21.300  25.030  31.064  0.00  0.00     0.096 A 
ATOM     20  C1  Y8L d          21.529  23.655  30.991  0.00  0.00     0.053 A 
ATOM     21  C2  Y8L d          21.964  23.113  29.795  0.00  0.00     0.139 A 
ATOM     22  N3  Y8L d          22.144  23.899  28.745  0.00  0.00    -0.075 NA
BRANCH  19  23
ATOM     23  C15 Y8L d          20.784  25.573  32.253  0.00  0.00     0.062 A 
ATOM     24  S23 Y8L d          21.683  26.311  33.521  0.00  0.00    -0.025 SA
ATOM     25  C24 Y8L d          20.332  26.509  34.522  0.00  0.00     0.291 A 
ATOM     26  O28 Y8L d          20.327  27.051  35.625  0.00  0.00    -0.259 OA
ATOM     27  N25 Y8L d          19.240  26.060  33.898  0.00  0.00    -0.316 N 
ATOM     28  C29 Y8L d          17.890  26.133  34.526  0.00  0.00     0.160 C 
ATOM     29  C26 Y8L d          19.445  25.545  32.679  0.00  0.00     0.030 A 
ATOM     30  C27 Y8L d          18.286  24.996  31.841  0.00  0.00     0.070 C 
ENDBRANCH  19  23
ENDBRANCH   1  17
TORSDOF 4
ENDMDL
