MODEL 1
REMARK VINA RESULT:     -10.4      0.000      0.000
REMARK  18 active torsions:
REMARK  status: ('A' for Active; 'I' for Inactive)
REMARK    1  A    between atoms: CBB_7  and  CBP_6 
REMARK    2  A    between atoms: OBJ_8  and  CBB_7 
REMARK    3  A    between atoms: CBM_9  and  OBJ_8 
REMARK       I    between atoms: NBI_11  and  CBM_9 
REMARK    4  A    between atoms: CBX_12  and  NBI_11 
REMARK    5  A    between atoms: CBX_12  and  CBE_13 
REMARK    6  A    between atoms: PBY_20  and  CBX_12 
REMARK    7  A    between atoms: CBE_13  and  CBQ_14 
REMARK    8  A    between atoms: CBF_36  and  PBY_20 
REMARK    9  A    between atoms: N_23  and  CA_24 
REMARK       I    between atoms: CBN_38  and  N_23 
REMARK   10  A    between atoms: CA_24  and  C_25 
REMARK   11  A    between atoms: CA_24  and  CB_28 
REMARK   12  A    between atoms: CB_28  and  CG_29 
REMARK   13  A    between atoms: CZ_32  and  OH_33 
REMARK   14  A    between atoms: CBV_37  and  CBF_36 
REMARK   15  A    between atoms: CBV_37  and  CBN_38 
REMARK   16  A    between atoms: CBV_37  and  CBC_40 
REMARK   17  A    between atoms: CBC_40  and  CBS_41 
REMARK   18  A    between atoms: CBU_45  and  CBT_46 
ROOT
ATOM      1  CBV MOL d          15.246  -5.813 -28.690  0.00  0.00     0.093 C 
ENDROOT
BRANCH   1   2
ATOM      2  CBF MOL d          13.765  -5.526 -28.359  0.00  0.00     0.120 C 
BRANCH   2   3
ATOM      3  PBY MOL d          13.508  -4.700 -26.761  0.00  0.00     0.130 P 
ATOM      4  OAG MOL d          14.602  -3.549 -26.714  0.00  0.00    -0.666 OA
ATOM      5  OAD MOL d          12.121  -4.234 -26.520  0.00  0.00    -0.666 OA
BRANCH   3   6
ATOM      6  CBX MOL d          14.012  -5.843 -25.413  0.00  0.00     0.182 C 
BRANCH   6   7
ATOM      7  NBI MOL d          13.563  -5.262 -24.144  0.00  0.00    -0.322 N 
ATOM      8  CBM MOL d          14.326  -4.513 -23.349  0.00  0.00     0.361 C 
ATOM      9  OAB MOL d          15.504  -4.227 -23.585  0.00  0.00    -0.238 OA
ATOM     10  H   MOL d          12.603  -5.442 -23.851  0.00  0.00     0.165 HD
BRANCH   8  11
ATOM     11  OBJ MOL d          13.701  -4.097 -22.214  0.00  0.00    -0.299 OA
BRANCH  11  12
ATOM     12  CBB MOL d          14.383  -4.033 -20.946  0.00  0.00     0.219 C 
BRANCH  12  13
ATOM     13  CBP MOL d          13.590  -3.578 -19.880  0.00  0.00    -0.034 A 
ATOM     14  CAQ MOL d          14.198  -2.907 -18.814  0.00  0.00     0.009 A 
ATOM     15  CAK MOL d          13.427  -2.428 -17.750  0.00  0.00     0.001 A 
ATOM     16  CAH MOL d          12.047  -2.616 -17.748  0.00  0.00     0.000 A 
ATOM     17  CAL MOL d          11.441  -3.278 -18.814  0.00  0.00     0.001 A 
ATOM     18  CAR MOL d          12.209  -3.756 -19.880  0.00  0.00     0.009 A 
ENDBRANCH  12  13
ENDBRANCH  11  12
ENDBRANCH   8  11
ENDBRANCH   6   7
BRANCH   6  19
ATOM     19  CBE MOL d          13.408  -7.246 -25.564  0.00  0.00     0.074 C 
BRANCH  19  20
ATOM     20  CBQ MOL d          14.115  -8.258 -24.644  0.00  0.00    -0.056 A 
ATOM     21  CAS MOL d          15.459  -8.072 -24.307  0.00  0.00     0.007 A 
ATOM     22  CAM MOL d          16.102  -8.985 -23.469  0.00  0.00     0.001 A 
ATOM     23  CAI MOL d          15.404 -10.083 -22.962  0.00  0.00     0.000 A 
ATOM     24  CAN MOL d          14.058 -10.267 -23.289  0.00  0.00     0.001 A 
ATOM     25  CAT MOL d          13.418  -9.355 -24.132  0.00  0.00     0.007 A 
ENDBRANCH  19  20
ENDBRANCH   6  19
ENDBRANCH   3   6
ENDBRANCH   2   3
ENDBRANCH   1   2
BRANCH   1  26
ATOM     26  CBN MOL d          15.619  -7.257 -28.302  0.00  0.00     0.223 C 
ATOM     27  N   MOL d          14.836  -8.218 -28.799  0.00  0.00    -0.346 N 
ATOM     28  H   MOL d          13.993  -7.957 -29.311  0.00  0.00     0.163 HD
ATOM     29  OAC MOL d          16.605  -7.480 -27.600  0.00  0.00    -0.273 OA
BRANCH  27  30
ATOM     30  CA  MOL d          15.158  -9.641 -28.627  0.00  0.00     0.189 C 
BRANCH  30  31
ATOM     31  C   MOL d          15.327 -10.248 -30.037  0.00  0.00     0.197 C 
ATOM     32  OXT MOL d          14.538 -11.159 -30.347  0.00  0.00    -0.646 OA
ATOM     33  O   MOL d          16.183  -9.760 -30.806  0.00  0.00    -0.646 OA
ENDBRANCH  30  31
BRANCH  30  34
ATOM     34  CB  MOL d          14.092 -10.399 -27.826  0.00  0.00     0.074 C 
BRANCH  34  35
ATOM     35  CG  MOL d          14.595 -11.439 -26.818  0.00  0.00    -0.056 A 
ATOM     36  CD1 MOL d          15.917 -11.401 -26.377  0.00  0.00     0.010 A 
ATOM     37  CE1 MOL d          16.372 -12.342 -25.447  0.00  0.00     0.037 A 
ATOM     38  CZ  MOL d          15.496 -13.310 -24.951  0.00  0.00     0.065 A 
ATOM     39  CE2 MOL d          14.171 -13.342 -25.384  0.00  0.00     0.037 A 
ATOM     40  CD2 MOL d          13.720 -12.408 -26.316  0.00  0.00     0.010 A 
BRANCH  38  41
ATOM     41  OH  MOL d          15.925 -14.227 -24.035  0.00  0.00    -0.361 OA
ATOM     42  H   MOL d          15.846 -13.858 -23.152  0.00  0.00     0.217 HD
ENDBRANCH  38  41
ENDBRANCH  34  35
ENDBRANCH  30  34
ENDBRANCH  27  30
ENDBRANCH   1  26
BRANCH   1  43
ATOM     43  CBC MOL d          15.582  -5.491 -30.157  0.00  0.00     0.082 C 
BRANCH  43  44
ATOM     44  CBS MOL d          17.046  -5.725 -30.585  0.00  0.00     0.082 A 
ATOM     45  CBA MOL d          17.628  -6.672 -31.326  0.00  0.00     0.069 A 
ATOM     46  CBU MOL d          18.947  -6.416 -31.421  0.00  0.00     0.097 A 
ATOM     47  NBG MOL d          19.212  -5.310 -30.736  0.00  0.00    -0.128 NA
ATOM     48  OBK MOL d          18.007  -4.849 -30.190  0.00  0.00    -0.217 OA
BRANCH  46  49
ATOM     49  CBT MOL d          19.922  -7.158 -32.096  0.00  0.00    -0.005 A 
ATOM     50  CAU MOL d          20.728  -6.570 -33.067  0.00  0.00     0.014 A 
ATOM     51  CAO MOL d          21.690  -7.322 -33.743  0.00  0.00     0.001 A 
ATOM     52  CAJ MOL d          21.854  -8.674 -33.454  0.00  0.00     0.000 A 
ATOM     53  CAP MOL d          21.047  -9.271 -32.481  0.00  0.00     0.001 A 
ATOM     54  CAV MOL d          20.079  -8.516 -31.812  0.00  0.00     0.014 A 
ENDBRANCH  46  49
ENDBRANCH  43  44
ENDBRANCH   1  43
TORSDOF 18
ENDMDL
MODEL 2
REMARK VINA RESULT:     -10.3      3.063      8.103
REMARK  18 active torsions:
REMARK  status: ('A' for Active; 'I' for Inactive)
REMARK    1  A    between atoms: CBB_7  and  CBP_6 
REMARK    2  A    between atoms: OBJ_8  and  CBB_7 
REMARK    3  A    between atoms: CBM_9  and  OBJ_8 
REMARK       I    between atoms: NBI_11  and  CBM_9 
REMARK    4  A    between atoms: CBX_12  and  NBI_11 
REMARK    5  A    between atoms: CBX_12  and  CBE_13 
REMARK    6  A    between atoms: PBY_20  and  CBX_12 
REMARK    7  A    between atoms: CBE_13  and  CBQ_14 
REMARK    8  A    between atoms: CBF_36  and  PBY_20 
REMARK    9  A    between atoms: N_23  and  CA_24 
REMARK       I    between atoms: CBN_38  and  N_23 
REMARK   10  A    between atoms: CA_24  and  C_25 
REMARK   11  A    between atoms: CA_24  and  CB_28 
REMARK   12  A    between atoms: CB_28  and  CG_29 
REMARK   13  A    between atoms: CZ_32  and  OH_33 
REMARK   14  A    between atoms: CBV_37  and  CBF_36 
REMARK   15  A    between atoms: CBV_37  and  CBN_38 
REMARK   16  A    between atoms: CBV_37  and  CBC_40 
REMARK   17  A    between atoms: CBC_40  and  CBS_41 
REMARK   18  A    between atoms: CBU_45  and  CBT_46 
ROOT
ATOM      1  CBV MOL d          15.313 -10.057 -29.359  0.00  0.00     0.093 C 
ENDROOT
BRANCH   1   2
ATOM      2  CBF MOL d          16.781  -9.630 -29.571  0.00  0.00     0.120 C 
BRANCH   2   3
ATOM      3  PBY MOL d          17.129  -8.958 -31.221  0.00  0.00     0.130 P 
ATOM      4  OAG MOL d          17.171 -10.224 -32.180  0.00  0.00    -0.666 OA
ATOM      5  OAD MOL d          16.202  -7.888 -31.663  0.00  0.00    -0.666 OA
BRANCH   3   6
ATOM      6  CBX MOL d          18.854  -8.324 -31.254  0.00  0.00     0.182 C 
BRANCH   6   7
ATOM      7  NBI MOL d          18.930  -7.188 -30.330  0.00  0.00    -0.322 N 
ATOM      8  CBM MOL d          18.864  -5.911 -30.702  0.00  0.00     0.361 C 
ATOM      9  OAB MOL d          18.740  -5.534 -31.872  0.00  0.00    -0.238 OA
ATOM     10  H   MOL d          19.040  -7.389 -29.336  0.00  0.00     0.165 HD
BRANCH   8  11
ATOM     11  OBJ MOL d          18.974  -5.027 -29.673  0.00  0.00    -0.299 OA
BRANCH  11  12
ATOM     12  CBB MOL d          18.312  -5.236 -28.412  0.00  0.00     0.219 C 
BRANCH  12  13
ATOM     13  CBP MOL d          17.057  -4.615 -28.301  0.00  0.00    -0.034 A 
ATOM     14  CAQ MOL d          16.822  -3.732 -27.242  0.00  0.00     0.009 A 
ATOM     15  CAK MOL d          15.588  -3.087 -27.122  0.00  0.00     0.001 A 
ATOM     16  CAH MOL d          14.585  -3.319 -28.060  0.00  0.00     0.000 A 
ATOM     17  CAL MOL d          14.822  -4.193 -29.118  0.00  0.00     0.001 A 
ATOM     18  CAR MOL d          16.055  -4.839 -29.242  0.00  0.00     0.009 A 
ENDBRANCH  12  13
ENDBRANCH  11  12
ENDBRANCH   8  11
ENDBRANCH   6   7
BRANCH   6  19
ATOM     19  CBE MOL d          19.886  -9.381 -30.836  0.00  0.00     0.074 C 
BRANCH  19  20
ATOM     20  CBQ MOL d          20.908  -9.635 -31.959  0.00  0.00    -0.056 A 
ATOM     21  CAS MOL d          21.298  -8.585 -32.795  0.00  0.00     0.007 A 
ATOM     22  CAM MOL d          22.228  -8.811 -33.812  0.00  0.00     0.001 A 
ATOM     23  CAI MOL d          22.774 -10.083 -33.992  0.00  0.00     0.000 A 
ATOM     24  CAN MOL d          22.394 -11.133 -33.152  0.00  0.00     0.001 A 
ATOM     25  CAT MOL d          21.459 -10.906 -32.138  0.00  0.00     0.007 A 
ENDBRANCH  19  20
ENDBRANCH   6  19
ENDBRANCH   3   6
ENDBRANCH   2   3
ENDBRANCH   1   2
BRANCH   1  26
ATOM     26  CBN MOL d          15.182 -10.954 -28.112  0.00  0.00     0.223 C 
ATOM     27  N   MOL d          13.984 -11.506 -27.911  0.00  0.00    -0.346 N 
ATOM     28  H   MOL d          13.205 -11.237 -28.513  0.00  0.00     0.163 HD
ATOM     29  OAC MOL d          16.154 -11.154 -27.383  0.00  0.00    -0.273 OA
BRANCH  27  30
ATOM     30  CA  MOL d          13.758 -12.492 -26.845  0.00  0.00     0.189 C 
BRANCH  30  31
ATOM     31  C   MOL d          12.591 -13.398 -27.295  0.00  0.00     0.197 C 
ATOM     32  OXT MOL d          12.440 -13.539 -28.522  0.00  0.00    -0.646 OA
ATOM     33  O   MOL d          11.914 -13.987 -26.426  0.00  0.00    -0.646 OA
ENDBRANCH  30  31
BRANCH  30  34
ATOM     34  CB  MOL d          13.458 -11.842 -25.488  0.00  0.00     0.074 C 
BRANCH  34  35
ATOM     35  CG  MOL d          14.630 -11.712 -24.509  0.00  0.00    -0.056 A 
ATOM     36  CD1 MOL d          14.891 -10.490 -23.890  0.00  0.00     0.010 A 
ATOM     37  CE1 MOL d          15.953 -10.375 -22.986  0.00  0.00     0.037 A 
ATOM     38  CZ  MOL d          16.741 -11.491 -22.694  0.00  0.00     0.065 A 
ATOM     39  CE2 MOL d          16.475 -12.715 -23.305  0.00  0.00     0.037 A 
ATOM     40  CD2 MOL d          15.420 -12.827 -24.211  0.00  0.00     0.010 A 
BRANCH  38  41
ATOM     41  OH  MOL d          17.773 -11.395 -21.806  0.00  0.00    -0.361 OA
ATOM     42  H   MOL d          18.498 -10.913 -22.211  0.00  0.00     0.217 HD
ENDBRANCH  38  41
ENDBRANCH  34  35
ENDBRANCH  30  34
ENDBRANCH  27  30
ENDBRANCH   1  26
BRANCH   1  43
ATOM     43  CBC MOL d          14.360  -8.849 -29.318  0.00  0.00     0.082 C 
BRANCH  43  44
ATOM     44  CBS MOL d          14.154  -8.193 -27.937  0.00  0.00     0.082 A 
ATOM     45  CBA MOL d          14.860  -7.285 -27.256  0.00  0.00     0.069 A 
ATOM     46  CBU MOL d          14.243  -7.026 -26.087  0.00  0.00     0.097 A 
ATOM     47  NBG MOL d          13.147  -7.772 -26.015  0.00  0.00    -0.128 NA
ATOM     48  OBK MOL d          13.070  -8.529 -27.191  0.00  0.00    -0.217 OA
BRANCH  46  49
ATOM     49  CBT MOL d          14.647  -6.147 -25.077  0.00  0.00    -0.005 A 
ATOM     50  CAU MOL d          13.771  -5.197 -24.558  0.00  0.00     0.014 A 
ATOM     51  CAO MOL d          14.187  -4.317 -23.558  0.00  0.00     0.001 A 
ATOM     52  CAJ MOL d          15.488  -4.379 -23.066  0.00  0.00     0.000 A 
ATOM     53  CAP MOL d          16.373  -5.330 -23.583  0.00  0.00     0.001 A 
ATOM     54  CAV MOL d          15.954  -6.204 -24.590  0.00  0.00     0.014 A 
ENDBRANCH  46  49
ENDBRANCH  43  44
ENDBRANCH   1  43
TORSDOF 18
ENDMDL
MODEL 3
REMARK VINA RESULT:     -10.1      2.153      9.931
REMARK  18 active torsions:
REMARK  status: ('A' for Active; 'I' for Inactive)
REMARK    1  A    between atoms: CBB_7  and  CBP_6 
REMARK    2  A    between atoms: OBJ_8  and  CBB_7 
REMARK    3  A    between atoms: CBM_9  and  OBJ_8 
REMARK       I    between atoms: NBI_11  and  CBM_9 
REMARK    4  A    between atoms: CBX_12  and  NBI_11 
REMARK    5  A    between atoms: CBX_12  and  CBE_13 
REMARK    6  A    between atoms: PBY_20  and  CBX_12 
REMARK    7  A    between atoms: CBE_13  and  CBQ_14 
REMARK    8  A    between atoms: CBF_36  and  PBY_20 
REMARK    9  A    between atoms: N_23  and  CA_24 
REMARK       I    between atoms: CBN_38  and  N_23 
REMARK   10  A    between atoms: CA_24  and  C_25 
REMARK   11  A    between atoms: CA_24  and  CB_28 
REMARK   12  A    between atoms: CB_28  and  CG_29 
REMARK   13  A    between atoms: CZ_32  and  OH_33 
REMARK   14  A    between atoms: CBV_37  and  CBF_36 
REMARK   15  A    between atoms: CBV_37  and  CBN_38 
REMARK   16  A    between atoms: CBV_37  and  CBC_40 
REMARK   17  A    between atoms: CBC_40  and  CBS_41 
REMARK   18  A    between atoms: CBU_45  and  CBT_46 
ROOT
ATOM      1  CBV MOL d          15.612  -7.561 -26.652  0.00  0.00     0.093 C 
ENDROOT
BRANCH   1   2
ATOM      2  CBF MOL d          16.556  -8.409 -27.531  0.00  0.00     0.120 C 
BRANCH   2   3
ATOM      3  PBY MOL d          16.238  -8.269 -29.313  0.00  0.00     0.130 P 
ATOM      4  OAG MOL d          17.144  -9.390 -29.981  0.00  0.00    -0.666 OA
ATOM      5  OAD MOL d          14.806  -8.334 -29.694  0.00  0.00    -0.666 OA
BRANCH   3   6
ATOM      6  CBX MOL d          16.963  -6.694 -29.925  0.00  0.00     0.182 C 
BRANCH   6   7
ATOM      7  NBI MOL d          17.762  -7.004 -31.115  0.00  0.00    -0.322 N 
ATOM      8  CBM MOL d          18.806  -6.286 -31.526  0.00  0.00     0.361 C 
ATOM      9  OAB MOL d          19.219  -5.271 -30.955  0.00  0.00    -0.238 OA
ATOM     10  H   MOL d          17.501  -7.822 -31.665  0.00  0.00     0.165 HD
BRANCH   8  11
ATOM     11  OBJ MOL d          19.385  -6.752 -32.666  0.00  0.00    -0.299 OA
BRANCH  11  12
ATOM     12  CBB MOL d          20.814  -6.858 -32.810  0.00  0.00     0.219 C 
BRANCH  12  13
ATOM     13  CBP MOL d          21.297  -8.175 -32.883  0.00  0.00    -0.034 A 
ATOM     14  CAQ MOL d          22.388  -8.459 -33.710  0.00  0.00     0.009 A 
ATOM     15  CAK MOL d          22.899  -9.758 -33.783  0.00  0.00     0.001 A 
ATOM     16  CAH MOL d          22.323 -10.778 -33.030  0.00  0.00     0.000 A 
ATOM     17  CAL MOL d          21.240 -10.494 -32.201  0.00  0.00     0.001 A 
ATOM     18  CAR MOL d          20.728  -9.195 -32.124  0.00  0.00     0.009 A 
ENDBRANCH  12  13
ENDBRANCH  11  12
ENDBRANCH   8  11
ENDBRANCH   6   7
BRANCH   6  19
ATOM     19  CBE MOL d          15.898  -5.651 -30.293  0.00  0.00     0.074 C 
BRANCH  19  20
ATOM     20  CBQ MOL d          15.736  -4.604 -29.175  0.00  0.00    -0.056 A 
ATOM     21  CAS MOL d          16.866  -4.092 -28.533  0.00  0.00     0.007 A 
ATOM     22  CAM MOL d          16.723  -3.139 -27.522  0.00  0.00     0.001 A 
ATOM     23  CAI MOL d          15.453  -2.693 -27.154  0.00  0.00     0.000 A 
ATOM     24  CAN MOL d          14.321  -3.196 -27.801  0.00  0.00     0.001 A 
ATOM     25  CAT MOL d          14.466  -4.153 -28.809  0.00  0.00     0.007 A 
ENDBRANCH  19  20
ENDBRANCH   6  19
ENDBRANCH   3   6
ENDBRANCH   2   3
ENDBRANCH   1   2
BRANCH   1  26
ATOM     26  CBN MOL d          14.651  -8.467 -25.857  0.00  0.00     0.223 C 
ATOM     27  N   MOL d          15.218  -9.276 -24.959  0.00  0.00    -0.346 N 
ATOM     28  H   MOL d          16.236  -9.333 -24.913  0.00  0.00     0.163 HD
ATOM     29  OAC MOL d          13.436  -8.401 -26.040  0.00  0.00    -0.273 OA
BRANCH  27  30
ATOM     30  CA  MOL d          14.414 -10.088 -24.035  0.00  0.00     0.189 C 
BRANCH  30  31
ATOM     31  C   MOL d          14.811  -9.681 -22.599  0.00  0.00     0.197 C 
ATOM     32  OXT MOL d          14.991 -10.609 -21.789  0.00  0.00    -0.646 OA
ATOM     33  O   MOL d          14.995  -8.472 -22.343  0.00  0.00    -0.646 OA
ENDBRANCH  30  31
BRANCH  30  34
ATOM     34  CB  MOL d          14.600 -11.595 -24.251  0.00  0.00     0.074 C 
BRANCH  34  35
ATOM     35  CG  MOL d          13.891 -12.213 -25.463  0.00  0.00    -0.056 A 
ATOM     36  CD1 MOL d          14.417 -12.037 -26.742  0.00  0.00     0.010 A 
ATOM     37  CE1 MOL d          13.779 -12.612 -27.847  0.00  0.00     0.037 A 
ATOM     38  CZ  MOL d          12.622 -13.373 -27.662  0.00  0.00     0.065 A 
ATOM     39  CE2 MOL d          12.101 -13.556 -26.383  0.00  0.00     0.037 A 
ATOM     40  CD2 MOL d          12.735 -12.977 -25.283  0.00  0.00     0.010 A 
BRANCH  38  41
ATOM     41  OH  MOL d          11.995 -13.948 -28.730  0.00  0.00    -0.361 OA
ATOM     42  H   MOL d          12.250 -13.489 -29.535  0.00  0.00     0.217 HD
ENDBRANCH  38  41
ENDBRANCH  34  35
ENDBRANCH  30  34
ENDBRANCH  27  30
ENDBRANCH   1  26
BRANCH   1  43
ATOM     43  CBC MOL d          16.384  -6.585 -25.748  0.00  0.00     0.082 C 
BRANCH  43  44
ATOM     44  CBS MOL d          15.543  -5.800 -24.720  0.00  0.00     0.082 A 
ATOM     45  CBA MOL d          15.781  -5.423 -23.460  0.00  0.00     0.069 A 
ATOM     46  CBU MOL d          14.721  -4.734 -22.994  0.00  0.00     0.097 A 
ATOM     47  NBG MOL d          13.803  -4.674 -23.951  0.00  0.00    -0.128 NA
ATOM     48  OBK MOL d          14.309  -5.351 -25.068  0.00  0.00    -0.217 OA
BRANCH  46  49
ATOM     49  CBT MOL d          14.552  -4.168 -21.726  0.00  0.00    -0.005 A 
ATOM     50  CAU MOL d          15.632  -3.637 -21.026  0.00  0.00     0.014 A 
ATOM     51  CAO MOL d          15.455  -3.085 -19.756  0.00  0.00     0.001 A 
ATOM     52  CAJ MOL d          14.191  -3.061 -19.172  0.00  0.00     0.000 A 
ATOM     53  CAP MOL d          13.102  -3.593 -19.869  0.00  0.00     0.001 A 
ATOM     54  CAV MOL d          13.286  -4.152 -21.137  0.00  0.00     0.014 A 
ENDBRANCH  46  49
ENDBRANCH  43  44
ENDBRANCH   1  43
TORSDOF 18
ENDMDL
MODEL 4
REMARK VINA RESULT:     -10.1      2.476      9.610
REMARK  18 active torsions:
REMARK  status: ('A' for Active; 'I' for Inactive)
REMARK    1  A    between atoms: CBB_7  and  CBP_6 
REMARK    2  A    between atoms: OBJ_8  and  CBB_7 
REMARK    3  A    between atoms: CBM_9  and  OBJ_8 
REMARK       I    between atoms: NBI_11  and  CBM_9 
REMARK    4  A    between atoms: CBX_12  and  NBI_11 
REMARK    5  A    between atoms: CBX_12  and  CBE_13 
REMARK    6  A    between atoms: PBY_20  and  CBX_12 
REMARK    7  A    between atoms: CBE_13  and  CBQ_14 
REMARK    8  A    between atoms: CBF_36  and  PBY_20 
REMARK    9  A    between atoms: N_23  and  CA_24 
REMARK       I    between atoms: CBN_38  and  N_23 
REMARK   10  A    between atoms: CA_24  and  C_25 
REMARK   11  A    between atoms: CA_24  and  CB_28 
REMARK   12  A    between atoms: CB_28  and  CG_29 
REMARK   13  A    between atoms: CZ_32  and  OH_33 
REMARK   14  A    between atoms: CBV_37  and  CBF_36 
REMARK   15  A    between atoms: CBV_37  and  CBN_38 
REMARK   16  A    between atoms: CBV_37  and  CBC_40 
REMARK   17  A    between atoms: CBC_40  and  CBS_41 
REMARK   18  A    between atoms: CBU_45  and  CBT_46 
ROOT
ATOM      1  CBV MOL d          15.101  -4.259 -23.873  0.00  0.00     0.093 C 
ENDROOT
BRANCH   1   2
ATOM      2  CBF MOL d          14.165  -4.794 -24.978  0.00  0.00     0.120 C 
BRANCH   2   3
ATOM      3  PBY MOL d          14.476  -4.087 -26.622  0.00  0.00     0.130 P 
ATOM      4  OAG MOL d          13.040  -3.698 -27.179  0.00  0.00    -0.666 OA
ATOM      5  OAD MOL d          15.460  -2.979 -26.644  0.00  0.00    -0.666 OA
BRANCH   3   6
ATOM      6  CBX MOL d          15.037  -5.427 -27.748  0.00  0.00     0.182 C 
BRANCH   6   7
ATOM      7  NBI MOL d          14.088  -6.538 -27.628  0.00  0.00    -0.322 N 
ATOM      8  CBM MOL d          14.424  -7.825 -27.709  0.00  0.00     0.361 C 
ATOM      9  OAB MOL d          15.574  -8.232 -27.903  0.00  0.00    -0.238 OA
ATOM     10  H   MOL d          13.106  -6.311 -27.472  0.00  0.00     0.165 HD
BRANCH   8  11
ATOM     11  OBJ MOL d          13.373  -8.681 -27.586  0.00  0.00    -0.299 OA
BRANCH  11  12
ATOM     12  CBB MOL d          12.788  -8.994 -26.308  0.00  0.00     0.219 C 
BRANCH  12  13
ATOM     13  CBP MOL d          12.658 -10.368 -26.046  0.00  0.00    -0.034 A 
ATOM     14  CAQ MOL d          12.257 -10.786 -24.773  0.00  0.00     0.009 A 
ATOM     15  CAK MOL d          12.101 -12.148 -24.495  0.00  0.00     0.001 A 
ATOM     16  CAH MOL d          12.345 -13.095 -25.486  0.00  0.00     0.000 A 
ATOM     17  CAL MOL d          12.738 -12.677 -26.756  0.00  0.00     0.001 A 
ATOM     18  CAR MOL d          12.892 -11.316 -27.038  0.00  0.00     0.009 A 
ENDBRANCH  12  13
ENDBRANCH  11  12
ENDBRANCH   8  11
ENDBRANCH   6   7
BRANCH   6  19
ATOM     19  CBE MOL d          15.105  -4.981 -29.216  0.00  0.00     0.074 C 
BRANCH  19  20
ATOM     20  CBQ MOL d          16.493  -5.268 -29.820  0.00  0.00    -0.056 A 
ATOM     21  CAS MOL d          17.607  -4.551 -29.374  0.00  0.00     0.007 A 
ATOM     22  CAM MOL d          18.867  -4.811 -29.917  0.00  0.00     0.001 A 
ATOM     23  CAI MOL d          19.018  -5.789 -30.900  0.00  0.00     0.000 A 
ATOM     24  CAN MOL d          17.908  -6.515 -31.342  0.00  0.00     0.001 A 
ATOM     25  CAT MOL d          16.647  -6.249 -30.801  0.00  0.00     0.007 A 
ENDBRANCH  19  20
ENDBRANCH   6  19
ENDBRANCH   3   6
ENDBRANCH   2   3
ENDBRANCH   1   2
BRANCH   1  26
ATOM     26  CBN MOL d          14.306  -3.952 -22.589  0.00  0.00     0.223 C 
ATOM     27  N   MOL d          14.976  -3.322 -21.621  0.00  0.00    -0.346 N 
ATOM     28  H   MOL d          15.979  -3.168 -21.730  0.00  0.00     0.163 HD
ATOM     29  OAC MOL d          13.116  -4.256 -22.504  0.00  0.00    -0.273 OA
BRANCH  27  30
ATOM     30  CA  MOL d          14.306  -2.843 -20.404  0.00  0.00     0.189 C 
BRANCH  30  31
ATOM     31  C   MOL d          15.383  -2.187 -19.513  0.00  0.00     0.197 C 
ATOM     32  OXT MOL d          16.280  -2.936 -19.083  0.00  0.00    -0.646 OA
ATOM     33  O   MOL d          15.342  -0.952 -19.327  0.00  0.00    -0.646 OA
ENDBRANCH  30  31
BRANCH  30  34
ATOM     34  CB  MOL d          13.574  -3.961 -19.650  0.00  0.00     0.074 C 
BRANCH  34  35
ATOM     35  CG  MOL d          12.734  -3.542 -18.438  0.00  0.00    -0.056 A 
ATOM     36  CD1 MOL d          12.418  -4.475 -17.451  0.00  0.00     0.010 A 
ATOM     37  CE1 MOL d          11.663  -4.089 -16.338  0.00  0.00     0.037 A 
ATOM     38  CZ  MOL d          11.240  -2.764 -16.211  0.00  0.00     0.065 A 
ATOM     39  CE2 MOL d          11.563  -1.829 -17.191  0.00  0.00     0.037 A 
ATOM     40  CD2 MOL d          12.310  -2.216 -18.304  0.00  0.00     0.010 A 
BRANCH  38  41
ATOM     41  OH  MOL d          10.512  -2.373 -15.124  0.00  0.00    -0.361 OA
ATOM     42  H   MOL d          10.202  -3.149 -14.651  0.00  0.00     0.217 HD
ENDBRANCH  38  41
ENDBRANCH  34  35
ENDBRANCH  30  34
ENDBRANCH  27  30
ENDBRANCH   1  26
BRANCH   1  43
ATOM     43  CBC MOL d          16.291  -5.201 -23.618  0.00  0.00     0.082 C 
BRANCH  43  44
ATOM     44  CBS MOL d          15.956  -6.702 -23.496  0.00  0.00     0.082 A 
ATOM     45  CBA MOL d          16.296  -7.764 -24.232  0.00  0.00     0.069 A 
ATOM     46  CBU MOL d          15.753  -8.872 -23.692  0.00  0.00     0.097 A 
ATOM     47  NBG MOL d          15.061  -8.521 -22.614  0.00  0.00    -0.128 NA
ATOM     48  OBK MOL d          15.177  -7.133 -22.470  0.00  0.00    -0.217 OA
BRANCH  46  49
ATOM     49  CBT MOL d          15.852 -10.190 -24.149  0.00  0.00    -0.005 A 
ATOM     50  CAU MOL d          16.167 -10.469 -25.476  0.00  0.00     0.014 A 
ATOM     51  CAO MOL d          16.253 -11.788 -25.926  0.00  0.00     0.001 A 
ATOM     52  CAJ MOL d          16.023 -12.844 -25.048  0.00  0.00     0.000 A 
ATOM     53  CAP MOL d          15.705 -12.572 -23.714  0.00  0.00     0.001 A 
ATOM     54  CAV MOL d          15.612 -11.249 -23.271  0.00  0.00     0.014 A 
ENDBRANCH  46  49
ENDBRANCH  43  44
ENDBRANCH   1  43
TORSDOF 18
ENDMDL
MODEL 5
REMARK VINA RESULT:     -10.1      2.297      3.956
REMARK  18 active torsions:
REMARK  status: ('A' for Active; 'I' for Inactive)
REMARK    1  A    between atoms: CBB_7  and  CBP_6 
REMARK    2  A    between atoms: OBJ_8  and  CBB_7 
REMARK    3  A    between atoms: CBM_9  and  OBJ_8 
REMARK       I    between atoms: NBI_11  and  CBM_9 
REMARK    4  A    between atoms: CBX_12  and  NBI_11 
REMARK    5  A    between atoms: CBX_12  and  CBE_13 
REMARK    6  A    between atoms: PBY_20  and  CBX_12 
REMARK    7  A    between atoms: CBE_13  and  CBQ_14 
REMARK    8  A    between atoms: CBF_36  and  PBY_20 
REMARK    9  A    between atoms: N_23  and  CA_24 
REMARK       I    between atoms: CBN_38  and  N_23 
REMARK   10  A    between atoms: CA_24  and  C_25 
REMARK   11  A    between atoms: CA_24  and  CB_28 
REMARK   12  A    between atoms: CB_28  and  CG_29 
REMARK   13  A    between atoms: CZ_32  and  OH_33 
REMARK   14  A    between atoms: CBV_37  and  CBF_36 
REMARK   15  A    between atoms: CBV_37  and  CBN_38 
REMARK   16  A    between atoms: CBV_37  and  CBC_40 
REMARK   17  A    between atoms: CBC_40  and  CBS_41 
REMARK   18  A    between atoms: CBU_45  and  CBT_46 
ROOT
ATOM      1  CBV MOL d          14.929  -8.747 -27.776  0.00  0.00     0.093 C 
ENDROOT
BRANCH   1   2
ATOM      2  CBF MOL d          14.718  -7.431 -26.997  0.00  0.00     0.120 C 
BRANCH   2   3
ATOM      3  PBY MOL d          15.213  -7.513 -25.251  0.00  0.00     0.130 P 
ATOM      4  OAG MOL d          13.848  -7.553 -24.439  0.00  0.00    -0.666 OA
ATOM      5  OAD MOL d          16.150  -8.615 -24.924  0.00  0.00    -0.666 OA
BRANCH   3   6
ATOM      6  CBX MOL d          15.966  -5.907 -24.770  0.00  0.00     0.182 C 
BRANCH   6   7
ATOM      7  NBI MOL d          15.728  -5.714 -23.336  0.00  0.00    -0.322 N 
ATOM      8  CBM MOL d          14.959  -4.755 -22.825  0.00  0.00     0.361 C 
ATOM      9  OAB MOL d          14.361  -3.909 -23.499  0.00  0.00    -0.238 OA
ATOM     10  H   MOL d          16.181  -6.358 -22.687  0.00  0.00     0.165 HD
BRANCH   8  11
ATOM     11  OBJ MOL d          14.899  -4.758 -21.465  0.00  0.00    -0.299 OA
BRANCH  11  12
ATOM     12  CBB MOL d          15.036  -3.552 -20.691  0.00  0.00     0.219 C 
BRANCH  12  13
ATOM     13  CBP MOL d          13.982  -3.311 -19.793  0.00  0.00    -0.034 A 
ATOM     14  CAQ MOL d          12.681  -3.673 -20.154  0.00  0.00     0.009 A 
ATOM     15  CAK MOL d          11.619  -3.460 -19.269  0.00  0.00     0.001 A 
ATOM     16  CAH MOL d          11.854  -2.888 -18.022  0.00  0.00     0.000 A 
ATOM     17  CAL MOL d          13.152  -2.533 -17.661  0.00  0.00     0.001 A 
ATOM     18  CAR MOL d          14.216  -2.746 -18.542  0.00  0.00     0.009 A 
ENDBRANCH  12  13
ENDBRANCH  11  12
ENDBRANCH   8  11
ENDBRANCH   6   7
BRANCH   6  19
ATOM     19  CBE MOL d          17.476  -5.852 -25.041  0.00  0.00     0.074 C 
BRANCH  19  20
ATOM     20  CBQ MOL d          17.765  -5.449 -26.499  0.00  0.00    -0.056 A 
ATOM     21  CAS MOL d          16.988  -4.465 -27.116  0.00  0.00     0.007 A 
ATOM     22  CAM MOL d          17.250  -4.094 -28.437  0.00  0.00     0.001 A 
ATOM     23  CAI MOL d          18.291  -4.701 -29.141  0.00  0.00     0.000 A 
ATOM     24  CAN MOL d          19.076  -5.678 -28.524  0.00  0.00     0.001 A 
ATOM     25  CAT MOL d          18.809  -6.051 -27.204  0.00  0.00     0.007 A 
ENDBRANCH  19  20
ENDBRANCH   6  19
ENDBRANCH   3   6
ENDBRANCH   2   3
ENDBRANCH   1   2
BRANCH   1  26
ATOM     26  CBN MOL d          13.746  -9.708 -27.549  0.00  0.00     0.223 C 
ATOM     27  N   MOL d          13.656 -10.250 -26.332  0.00  0.00    -0.346 N 
ATOM     28  H   MOL d          14.408 -10.091 -25.660  0.00  0.00     0.163 HD
ATOM     29  OAC MOL d          12.931  -9.918 -28.448  0.00  0.00    -0.273 OA
BRANCH  27  30
ATOM     30  CA  MOL d          12.503 -11.070 -25.936  0.00  0.00     0.189 C 
BRANCH  30  31
ATOM     31  C   MOL d          11.524 -10.149 -25.174  0.00  0.00     0.197 C 
ATOM     32  OXT MOL d          11.116 -10.563 -24.073  0.00  0.00    -0.646 OA
ATOM     33  O   MOL d          11.248  -9.030 -25.656  0.00  0.00    -0.646 OA
ENDBRANCH  30  31
BRANCH  30  34
ATOM     34  CB  MOL d          12.899 -12.280 -25.080  0.00  0.00     0.074 C 
BRANCH  34  35
ATOM     35  CG  MOL d          14.262 -12.214 -24.379  0.00  0.00    -0.056 A 
ATOM     36  CD1 MOL d          14.496 -11.251 -23.398  0.00  0.00     0.010 A 
ATOM     37  CE1 MOL d          15.734 -11.200 -22.749  0.00  0.00     0.037 A 
ATOM     38  CZ  MOL d          16.729 -12.125 -23.076  0.00  0.00     0.065 A 
ATOM     39  CE2 MOL d          16.492 -13.093 -24.049  0.00  0.00     0.037 A 
ATOM     40  CD2 MOL d          15.260 -13.139 -24.701  0.00  0.00     0.010 A 
BRANCH  38  41
ATOM     41  OH  MOL d          17.938 -12.092 -22.442  0.00  0.00    -0.361 OA
ATOM     42  H   MOL d          18.517 -11.471 -22.891  0.00  0.00     0.217 HD
ENDBRANCH  38  41
ENDBRANCH  34  35
ENDBRANCH  30  34
ENDBRANCH  27  30
ENDBRANCH   1  26
BRANCH   1  43
ATOM     43  CBC MOL d          15.206  -8.497 -29.269  0.00  0.00     0.082 C 
BRANCH  43  44
ATOM     44  CBS MOL d          16.681  -8.591 -29.711  0.00  0.00     0.082 A 
ATOM     45  CBA MOL d          17.327  -8.147 -30.794  0.00  0.00     0.069 A 
ATOM     46  CBU MOL d          18.631  -8.475 -30.700  0.00  0.00     0.097 A 
ATOM     47  NBG MOL d          18.819  -9.133 -29.562  0.00  0.00    -0.128 NA
ATOM     48  OBK MOL d          17.581  -9.219 -28.912  0.00  0.00    -0.217 OA
BRANCH  46  49
ATOM     49  CBT MOL d          19.653  -8.210 -31.616  0.00  0.00    -0.005 A 
ATOM     50  CAU MOL d          20.524  -9.213 -32.033  0.00  0.00     0.014 A 
ATOM     51  CAO MOL d          21.548  -8.935 -32.939  0.00  0.00     0.001 A 
ATOM     52  CAJ MOL d          21.712  -7.646 -33.438  0.00  0.00     0.000 A 
ATOM     53  CAP MOL d          20.843  -6.633 -33.023  0.00  0.00     0.001 A 
ATOM     54  CAV MOL d          19.823  -6.914 -32.109  0.00  0.00     0.014 A 
ENDBRANCH  46  49
ENDBRANCH  43  44
ENDBRANCH   1  43
TORSDOF 18
ENDMDL
MODEL 6
REMARK VINA RESULT:     -10.0      2.180      9.719
REMARK  18 active torsions:
REMARK  status: ('A' for Active; 'I' for Inactive)
REMARK    1  A    between atoms: CBB_7  and  CBP_6 
REMARK    2  A    between atoms: OBJ_8  and  CBB_7 
REMARK    3  A    between atoms: CBM_9  and  OBJ_8 
REMARK       I    between atoms: NBI_11  and  CBM_9 
REMARK    4  A    between atoms: CBX_12  and  NBI_11 
REMARK    5  A    between atoms: CBX_12  and  CBE_13 
REMARK    6  A    between atoms: PBY_20  and  CBX_12 
REMARK    7  A    between atoms: CBE_13  and  CBQ_14 
REMARK    8  A    between atoms: CBF_36  and  PBY_20 
REMARK    9  A    between atoms: N_23  and  CA_24 
REMARK       I    between atoms: CBN_38  and  N_23 
REMARK   10  A    between atoms: CA_24  and  C_25 
REMARK   11  A    between atoms: CA_24  and  CB_28 
REMARK   12  A    between atoms: CB_28  and  CG_29 
REMARK   13  A    between atoms: CZ_32  and  OH_33 
REMARK   14  A    between atoms: CBV_37  and  CBF_36 
REMARK   15  A    between atoms: CBV_37  and  CBN_38 
REMARK   16  A    between atoms: CBV_37  and  CBC_40 
REMARK   17  A    between atoms: CBC_40  and  CBS_41 
REMARK   18  A    between atoms: CBU_45  and  CBT_46 
ROOT
ATOM      1  CBV MOL d          15.942  -8.195 -27.009  0.00  0.00     0.093 C 
ENDROOT
BRANCH   1   2
ATOM      2  CBF MOL d          16.964  -8.686 -28.057  0.00  0.00     0.120 C 
BRANCH   2   3
ATOM      3  PBY MOL d          16.498  -8.326 -29.774  0.00  0.00     0.130 P 
ATOM      4  OAG MOL d          17.360  -9.330 -30.653  0.00  0.00    -0.666 OA
ATOM      5  OAD MOL d          15.040  -8.376 -30.045  0.00  0.00    -0.666 OA
BRANCH   3   6
ATOM      6  CBX MOL d          17.149  -6.669 -30.233  0.00  0.00     0.182 C 
BRANCH   6   7
ATOM      7  NBI MOL d          17.956  -6.827 -31.447  0.00  0.00    -0.322 N 
ATOM      8  CBM MOL d          19.076  -6.150 -31.697  0.00  0.00     0.361 C 
ATOM      9  OAB MOL d          19.561  -5.305 -30.938  0.00  0.00    -0.238 OA
ATOM     10  H   MOL d          17.639  -7.499 -32.146  0.00  0.00     0.165 HD
BRANCH   8  11
ATOM     11  OBJ MOL d          19.647  -6.449 -32.896  0.00  0.00    -0.299 OA
BRANCH  11  12
ATOM     12  CBB MOL d          21.051  -6.740 -33.022  0.00  0.00     0.219 C 
BRANCH  12  13
ATOM     13  CBP MOL d          21.371  -8.107 -32.972  0.00  0.00    -0.034 A 
ATOM     14  CAQ MOL d          22.421  -8.594 -33.757  0.00  0.00     0.009 A 
ATOM     15  CAK MOL d          22.769  -9.947 -33.708  0.00  0.00     0.001 A 
ATOM     16  CAH MOL d          22.072 -10.818 -32.875  0.00  0.00     0.000 A 
ATOM     17  CAL MOL d          21.030 -10.331 -32.088  0.00  0.00     0.001 A 
ATOM     18  CAR MOL d          20.680  -8.979 -32.133  0.00  0.00     0.009 A 
ENDBRANCH  12  13
ENDBRANCH  11  12
ENDBRANCH   8  11
ENDBRANCH   6   7
BRANCH   6  19
ATOM     19  CBE MOL d          16.037  -5.645 -30.498  0.00  0.00     0.074 C 
BRANCH  19  20
ATOM     20  CBQ MOL d          15.848  -4.704 -29.294  0.00  0.00    -0.056 A 
ATOM     21  CAS MOL d          16.926  -4.435 -28.446  0.00  0.00     0.007 A 
ATOM     22  CAM MOL d          16.758  -3.579 -27.355  0.00  0.00     0.001 A 
ATOM     23  CAI MOL d          15.518  -2.988 -27.111  0.00  0.00     0.000 A 
ATOM     24  CAN MOL d          14.440  -3.248 -27.962  0.00  0.00     0.001 A 
ATOM     25  CAT MOL d          14.608  -4.108 -29.051  0.00  0.00     0.007 A 
ENDBRANCH  19  20
ENDBRANCH   6  19
ENDBRANCH   3   6
ENDBRANCH   2   3
ENDBRANCH   1   2
BRANCH   1  26
ATOM     26  CBN MOL d          14.937  -9.311 -26.665  0.00  0.00     0.223 C 
ATOM     27  N   MOL d          13.969  -8.984 -25.806  0.00  0.00    -0.346 N 
ATOM     28  H   MOL d          13.997  -8.072 -25.349  0.00  0.00     0.163 HD
ATOM     29  OAC MOL d          15.030 -10.419 -27.194  0.00  0.00    -0.273 OA
BRANCH  27  30
ATOM     30  CA  MOL d          12.866  -9.905 -25.500  0.00  0.00     0.189 C 
BRANCH  30  31
ATOM     31  C   MOL d          11.551  -9.101 -25.611  0.00  0.00     0.197 C 
ATOM     32  OXT MOL d          10.540  -9.617 -25.101  0.00  0.00    -0.646 OA
ATOM     33  O   MOL d          11.580  -7.966 -26.135  0.00  0.00    -0.646 OA
ENDBRANCH  30  31
BRANCH  30  34
ATOM     34  CB  MOL d          12.998 -10.554 -24.116  0.00  0.00     0.074 C 
BRANCH  34  35
ATOM     35  CG  MOL d          14.401 -11.008 -23.697  0.00  0.00    -0.056 A 
ATOM     36  CD1 MOL d          15.175 -10.202 -22.862  0.00  0.00     0.010 A 
ATOM     37  CE1 MOL d          16.450 -10.622 -22.468  0.00  0.00     0.037 A 
ATOM     38  CZ  MOL d          16.940 -11.857 -22.901  0.00  0.00     0.065 A 
ATOM     39  CE2 MOL d          16.163 -12.666 -23.728  0.00  0.00     0.037 A 
ATOM     40  CD2 MOL d          14.895 -12.243 -24.126  0.00  0.00     0.010 A 
BRANCH  38  41
ATOM     41  OH  MOL d          18.178 -12.283 -22.516  0.00  0.00    -0.361 OA
ATOM     42  H   MOL d          18.705 -11.528 -22.244  0.00  0.00     0.217 HD
ENDBRANCH  38  41
ENDBRANCH  34  35
ENDBRANCH  30  34
ENDBRANCH  27  30
ENDBRANCH   1  26
BRANCH   1  43
ATOM     43  CBC MOL d          16.629  -7.616 -25.759  0.00  0.00     0.082 C 
BRANCH  43  44
ATOM     44  CBS MOL d          15.803  -6.606 -24.936  0.00  0.00     0.082 A 
ATOM     45  CBA MOL d          15.906  -6.172 -23.676  0.00  0.00     0.069 A 
ATOM     46  CBU MOL d          14.939  -5.265 -23.437  0.00  0.00     0.097 A 
ATOM     47  NBG MOL d          14.213  -5.122 -24.540  0.00  0.00    -0.128 NA
ATOM     48  OBK MOL d          14.750  -5.973 -25.514  0.00  0.00    -0.217 OA
BRANCH  46  49
ATOM     49  CBT MOL d          14.684  -4.572 -22.249  0.00  0.00    -0.005 A 
ATOM     50  CAU MOL d          15.710  -3.945 -21.548  0.00  0.00     0.014 A 
ATOM     51  CAO MOL d          15.446  -3.265 -20.358  0.00  0.00     0.001 A 
ATOM     52  CAJ MOL d          14.148  -3.207 -19.856  0.00  0.00     0.000 A 
ATOM     53  CAP MOL d          13.113  -3.836 -20.554  0.00  0.00     0.001 A 
ATOM     54  CAV MOL d          13.384  -4.522 -21.741  0.00  0.00     0.014 A 
ENDBRANCH  46  49
ENDBRANCH  43  44
ENDBRANCH   1  43
TORSDOF 18
ENDMDL
MODEL 7
REMARK VINA RESULT:      -9.9      2.125      9.916
REMARK  18 active torsions:
REMARK  status: ('A' for Active; 'I' for Inactive)
REMARK    1  A    between atoms: CBB_7  and  CBP_6 
REMARK    2  A    between atoms: OBJ_8  and  CBB_7 
REMARK    3  A    between atoms: CBM_9  and  OBJ_8 
REMARK       I    between atoms: NBI_11  and  CBM_9 
REMARK    4  A    between atoms: CBX_12  and  NBI_11 
REMARK    5  A    between atoms: CBX_12  and  CBE_13 
REMARK    6  A    between atoms: PBY_20  and  CBX_12 
REMARK    7  A    between atoms: CBE_13  and  CBQ_14 
REMARK    8  A    between atoms: CBF_36  and  PBY_20 
REMARK    9  A    between atoms: N_23  and  CA_24 
REMARK       I    between atoms: CBN_38  and  N_23 
REMARK   10  A    between atoms: CA_24  and  C_25 
REMARK   11  A    between atoms: CA_24  and  CB_28 
REMARK   12  A    between atoms: CB_28  and  CG_29 
REMARK   13  A    between atoms: CZ_32  and  OH_33 
REMARK   14  A    between atoms: CBV_37  and  CBF_36 
REMARK   15  A    between atoms: CBV_37  and  CBN_38 
REMARK   16  A    between atoms: CBV_37  and  CBC_40 
REMARK   17  A    between atoms: CBC_40  and  CBS_41 
REMARK   18  A    between atoms: CBU_45  and  CBT_46 
ROOT
ATOM      1  CBV MOL d          16.093  -7.450 -25.835  0.00  0.00     0.093 C 
ENDROOT
BRANCH   1   2
ATOM      2  CBF MOL d          17.380  -7.613 -26.673  0.00  0.00     0.120 C 
BRANCH   2   3
ATOM      3  PBY MOL d          18.102  -6.046 -27.239  0.00  0.00     0.130 P 
ATOM      4  OAG MOL d          17.377  -4.926 -26.376  0.00  0.00    -0.666 OA
ATOM      5  OAD MOL d          19.583  -5.991 -27.189  0.00  0.00    -0.666 OA
BRANCH   3   6
ATOM      6  CBX MOL d          17.535  -5.716 -28.956  0.00  0.00     0.182 C 
BRANCH   6   7
ATOM      7  NBI MOL d          18.435  -6.429 -29.868  0.00  0.00    -0.322 N 
ATOM      8  CBM MOL d          18.750  -6.010 -31.092  0.00  0.00     0.361 C 
ATOM      9  OAB MOL d          18.313  -4.974 -31.606  0.00  0.00    -0.238 OA
ATOM     10  H   MOL d          18.848  -7.303 -29.543  0.00  0.00     0.165 HD
BRANCH   8  11
ATOM     11  OBJ MOL d          19.590  -6.844 -31.764  0.00  0.00    -0.299 OA
BRANCH  11  12
ATOM     12  CBB MOL d          19.663  -8.252 -31.473  0.00  0.00     0.219 C 
BRANCH  12  13
ATOM     13  CBP MOL d          20.690  -8.935 -32.146  0.00  0.00    -0.034 A 
ATOM     14  CAQ MOL d          20.859 -10.305 -31.925  0.00  0.00     0.009 A 
ATOM     15  CAK MOL d          21.861 -11.010 -32.599  0.00  0.00     0.001 A 
ATOM     16  CAH MOL d          22.697 -10.349 -33.495  0.00  0.00     0.000 A 
ATOM     17  CAL MOL d          22.524  -8.985 -33.720  0.00  0.00     0.001 A 
ATOM     18  CAR MOL d          21.521  -8.278 -33.050  0.00  0.00     0.009 A 
ENDBRANCH  12  13
ENDBRANCH  11  12
ENDBRANCH   8  11
ENDBRANCH   6   7
BRANCH   6  19
ATOM     19  CBE MOL d          16.094  -6.181 -29.207  0.00  0.00     0.074 C 
BRANCH  19  20
ATOM     20  CBQ MOL d          15.078  -5.211 -28.575  0.00  0.00    -0.056 A 
ATOM     21  CAS MOL d          13.955  -5.714 -27.912  0.00  0.00     0.007 A 
ATOM     22  CAM MOL d          13.035  -4.838 -27.334  0.00  0.00     0.001 A 
ATOM     23  CAI MOL d          13.236  -3.459 -27.412  0.00  0.00     0.000 A 
ATOM     24  CAN MOL d          14.363  -2.952 -28.065  0.00  0.00     0.001 A 
ATOM     25  CAT MOL d          15.280  -3.831 -28.648  0.00  0.00     0.007 A 
ENDBRANCH  19  20
ENDBRANCH   6  19
ENDBRANCH   3   6
ENDBRANCH   2   3
ENDBRANCH   1   2
BRANCH   1  26
ATOM     26  CBN MOL d          15.128  -8.624 -26.090  0.00  0.00     0.223 C 
ATOM     27  N   MOL d          14.109  -8.741 -25.236  0.00  0.00    -0.346 N 
ATOM     28  H   MOL d          14.074  -8.131 -24.418  0.00  0.00     0.163 HD
ATOM     29  OAC MOL d          15.296  -9.373 -27.053  0.00  0.00    -0.273 OA
BRANCH  27  30
ATOM     30  CA  MOL d          13.037  -9.725 -25.442  0.00  0.00     0.189 C 
BRANCH  30  31
ATOM     31  C   MOL d          11.704  -8.946 -25.509  0.00  0.00     0.197 C 
ATOM     32  OXT MOL d          11.747  -7.817 -26.029  0.00  0.00    -0.646 OA
ATOM     33  O   MOL d          10.659  -9.504 -25.109  0.00  0.00    -0.646 OA
ENDBRANCH  30  31
BRANCH  30  34
ATOM     34  CB  MOL d          12.994 -10.797 -24.345  0.00  0.00     0.074 C 
BRANCH  34  35
ATOM     35  CG  MOL d          14.341 -11.260 -23.779  0.00  0.00    -0.056 A 
ATOM     36  CD1 MOL d          14.977 -12.378 -24.318  0.00  0.00     0.010 A 
ATOM     37  CE1 MOL d          16.214 -12.793 -23.811  0.00  0.00     0.037 A 
ATOM     38  CZ  MOL d          16.814 -12.077 -22.772  0.00  0.00     0.065 A 
ATOM     39  CE2 MOL d          16.183 -10.955 -22.239  0.00  0.00     0.037 A 
ATOM     40  CD2 MOL d          14.948 -10.545 -22.741  0.00  0.00     0.010 A 
BRANCH  38  41
ATOM     41  OH  MOL d          18.025 -12.466 -22.275  0.00  0.00    -0.361 OA
ATOM     42  H   MOL d          18.551 -11.689 -22.073  0.00  0.00     0.217 HD
ENDBRANCH  38  41
ENDBRANCH  34  35
ENDBRANCH  30  34
ENDBRANCH  27  30
ENDBRANCH   1  26
BRANCH   1  43
ATOM     43  CBC MOL d          16.398  -7.253 -24.340  0.00  0.00     0.082 C 
BRANCH  43  44
ATOM     44  CBS MOL d          15.534  -6.208 -23.603  0.00  0.00     0.082 A 
ATOM     45  CBA MOL d          15.583  -5.712 -22.363  0.00  0.00     0.069 A 
ATOM     46  CBU MOL d          14.603  -4.800 -22.210  0.00  0.00     0.097 A 
ATOM     47  NBG MOL d          13.923  -4.716 -23.347  0.00  0.00    -0.128 NA
ATOM     48  OBK MOL d          14.503  -5.612 -24.255  0.00  0.00    -0.217 OA
BRANCH  46  49
ATOM     49  CBT MOL d          14.296  -4.050 -21.070  0.00  0.00    -0.005 A 
ATOM     50  CAU MOL d          15.272  -3.304 -20.415  0.00  0.00     0.014 A 
ATOM     51  CAO MOL d          14.958  -2.568 -19.272  0.00  0.00     0.001 A 
ATOM     52  CAJ MOL d          13.659  -2.572 -18.770  0.00  0.00     0.000 A 
ATOM     53  CAP MOL d          12.674  -3.320 -19.421  0.00  0.00     0.001 A 
ATOM     54  CAV MOL d          12.995  -4.062 -20.562  0.00  0.00     0.014 A 
ENDBRANCH  46  49
ENDBRANCH  43  44
ENDBRANCH   1  43
TORSDOF 18
ENDMDL
MODEL 8
REMARK VINA RESULT:      -9.9      2.464      9.225
REMARK  18 active torsions:
REMARK  status: ('A' for Active; 'I' for Inactive)
REMARK    1  A    between atoms: CBB_7  and  CBP_6 
REMARK    2  A    between atoms: OBJ_8  and  CBB_7 
REMARK    3  A    between atoms: CBM_9  and  OBJ_8 
REMARK       I    between atoms: NBI_11  and  CBM_9 
REMARK    4  A    between atoms: CBX_12  and  NBI_11 
REMARK    5  A    between atoms: CBX_12  and  CBE_13 
REMARK    6  A    between atoms: PBY_20  and  CBX_12 
REMARK    7  A    between atoms: CBE_13  and  CBQ_14 
REMARK    8  A    between atoms: CBF_36  and  PBY_20 
REMARK    9  A    between atoms: N_23  and  CA_24 
REMARK       I    between atoms: CBN_38  and  N_23 
REMARK   10  A    between atoms: CA_24  and  C_25 
REMARK   11  A    between atoms: CA_24  and  CB_28 
REMARK   12  A    between atoms: CB_28  and  CG_29 
REMARK   13  A    between atoms: CZ_32  and  OH_33 
REMARK   14  A    between atoms: CBV_37  and  CBF_36 
REMARK   15  A    between atoms: CBV_37  and  CBN_38 
REMARK   16  A    between atoms: CBV_37  and  CBC_40 
REMARK   17  A    between atoms: CBC_40  and  CBS_41 
REMARK   18  A    between atoms: CBU_45  and  CBT_46 
ROOT
ATOM      1  CBV MOL d          15.187  -5.876 -23.831  0.00  0.00     0.093 C 
ENDROOT
BRANCH   1   2
ATOM      2  CBF MOL d          14.244  -7.081 -24.035  0.00  0.00     0.120 C 
BRANCH   2   3
ATOM      3  PBY MOL d          13.414  -7.110 -25.650  0.00  0.00     0.130 P 
ATOM      4  OAG MOL d          11.868  -6.961 -25.320  0.00  0.00    -0.666 OA
ATOM      5  OAD MOL d          13.927  -6.121 -26.629  0.00  0.00    -0.666 OA
BRANCH   3   6
ATOM      6  CBX MOL d          13.552  -8.801 -26.360  0.00  0.00     0.182 C 
BRANCH   6   7
ATOM      7  NBI MOL d          14.306  -8.698 -27.613  0.00  0.00    -0.322 N 
ATOM      8  CBM MOL d          13.927  -9.249 -28.765  0.00  0.00     0.361 C 
ATOM      9  OAB MOL d          12.898  -9.918 -28.910  0.00  0.00    -0.238 OA
ATOM     10  H   MOL d          15.179  -8.170 -27.603  0.00  0.00     0.165 HD
BRANCH   8  11
ATOM     11  OBJ MOL d          14.793  -9.037 -29.793  0.00  0.00    -0.299 OA
BRANCH  11  12
ATOM     12  CBB MOL d          15.627 -10.087 -30.319  0.00  0.00     0.219 C 
BRANCH  12  13
ATOM     13  CBP MOL d          16.999  -9.791 -30.334  0.00  0.00    -0.034 A 
ATOM     14  CAQ MOL d          17.715  -9.928 -31.528  0.00  0.00     0.009 A 
ATOM     15  CAK MOL d          19.078  -9.620 -31.572  0.00  0.00     0.001 A 
ATOM     16  CAH MOL d          19.730  -9.174 -30.426  0.00  0.00     0.000 A 
ATOM     17  CAL MOL d          19.016  -9.032 -29.238  0.00  0.00     0.001 A 
ATOM     18  CAR MOL d          17.652  -9.336 -29.191  0.00  0.00     0.009 A 
ENDBRANCH  12  13
ENDBRANCH  11  12
ENDBRANCH   8  11
ENDBRANCH   6   7
BRANCH   6  19
ATOM     19  CBE MOL d          14.268  -9.783 -25.422  0.00  0.00     0.074 C 
BRANCH  19  20
ATOM     20  CBQ MOL d          13.413 -11.040 -25.177  0.00  0.00    -0.056 A 
ATOM     21  CAS MOL d          13.510 -12.129 -26.047  0.00  0.00     0.007 A 
ATOM     22  CAM MOL d          12.739 -13.272 -25.825  0.00  0.00     0.001 A 
ATOM     23  CAI MOL d          11.873 -13.332 -24.732  0.00  0.00     0.000 A 
ATOM     24  CAN MOL d          11.780 -12.248 -23.854  0.00  0.00     0.001 A 
ATOM     25  CAT MOL d          12.549 -11.104 -24.080  0.00  0.00     0.007 A 
ENDBRANCH  19  20
ENDBRANCH   6  19
ENDBRANCH   3   6
ENDBRANCH   2   3
ENDBRANCH   1   2
BRANCH   1  26
ATOM     26  CBN MOL d          15.164  -5.411 -22.362  0.00  0.00     0.223 C 
ATOM     27  N   MOL d          14.816  -4.139 -22.156  0.00  0.00    -0.346 N 
ATOM     28  H   MOL d          14.685  -3.523 -22.959  0.00  0.00     0.163 HD
ATOM     29  OAC MOL d          15.425  -6.199 -21.453  0.00  0.00    -0.273 OA
BRANCH  27  30
ATOM     30  CA  MOL d          14.615  -3.603 -20.802  0.00  0.00     0.189 C 
BRANCH  30  31
ATOM     31  C   MOL d          13.186  -3.990 -20.361  0.00  0.00     0.197 C 
ATOM     32  OXT MOL d          13.038  -4.290 -19.162  0.00  0.00    -0.646 OA
ATOM     33  O   MOL d          12.257  -3.919 -21.194  0.00  0.00    -0.646 OA
ENDBRANCH  30  31
BRANCH  30  34
ATOM     34  CB  MOL d          14.822  -2.085 -20.727  0.00  0.00     0.074 C 
BRANCH  34  35
ATOM     35  CG  MOL d          15.078  -1.491 -19.337  0.00  0.00    -0.056 A 
ATOM     36  CD1 MOL d          14.358  -0.375 -18.912  0.00  0.00     0.010 A 
ATOM     37  CE1 MOL d          14.582   0.159 -17.638  0.00  0.00     0.037 A 
ATOM     38  CZ  MOL d          15.518  -0.436 -16.789  0.00  0.00     0.065 A 
ATOM     39  CE2 MOL d          16.231  -1.557 -17.210  0.00  0.00     0.037 A 
ATOM     40  CD2 MOL d          16.012  -2.085 -18.483  0.00  0.00     0.010 A 
BRANCH  38  41
ATOM     41  OH  MOL d          15.738   0.069 -15.540  0.00  0.00    -0.361 OA
ATOM     42  H   MOL d          16.590   0.512 -15.521  0.00  0.00     0.217 HD
ENDBRANCH  38  41
ENDBRANCH  34  35
ENDBRANCH  30  34
ENDBRANCH  27  30
ENDBRANCH   1  26
BRANCH   1  43
ATOM     43  CBC MOL d          16.612  -6.167 -24.334  0.00  0.00     0.082 C 
BRANCH  43  44
ATOM     44  CBS MOL d          16.958  -5.636 -25.741  0.00  0.00     0.082 A 
ATOM     45  CBA MOL d          17.170  -6.251 -26.909  0.00  0.00     0.069 A 
ATOM     46  CBU MOL d          17.425  -5.329 -27.857  0.00  0.00     0.097 A 
ATOM     47  NBG MOL d          17.382  -4.125 -27.298  0.00  0.00    -0.128 NA
ATOM     48  OBK MOL d          17.084  -4.299 -25.940  0.00  0.00    -0.217 OA
BRANCH  46  49
ATOM     49  CBT MOL d          17.708  -5.541 -29.210  0.00  0.00    -0.005 A 
ATOM     50  CAU MOL d          16.723  -5.978 -30.091  0.00  0.00     0.014 A 
ATOM     51  CAO MOL d          17.019  -6.198 -31.437  0.00  0.00     0.001 A 
ATOM     52  CAJ MOL d          18.308  -5.982 -31.916  0.00  0.00     0.000 A 
ATOM     53  CAP MOL d          19.303  -5.545 -31.038  0.00  0.00     0.001 A 
ATOM     54  CAV MOL d          19.004  -5.334 -29.688  0.00  0.00     0.014 A 
ENDBRANCH  46  49
ENDBRANCH  43  44
ENDBRANCH   1  43
TORSDOF 18
ENDMDL
MODEL 9
REMARK VINA RESULT:      -9.8      3.140      6.395
REMARK  18 active torsions:
REMARK  status: ('A' for Active; 'I' for Inactive)
REMARK    1  A    between atoms: CBB_7  and  CBP_6 
REMARK    2  A    between atoms: OBJ_8  and  CBB_7 
REMARK    3  A    between atoms: CBM_9  and  OBJ_8 
REMARK       I    between atoms: NBI_11  and  CBM_9 
REMARK    4  A    between atoms: CBX_12  and  NBI_11 
REMARK    5  A    between atoms: CBX_12  and  CBE_13 
REMARK    6  A    between atoms: PBY_20  and  CBX_12 
REMARK    7  A    between atoms: CBE_13  and  CBQ_14 
REMARK    8  A    between atoms: CBF_36  and  PBY_20 
REMARK    9  A    between atoms: N_23  and  CA_24 
REMARK       I    between atoms: CBN_38  and  N_23 
REMARK   10  A    between atoms: CA_24  and  C_25 
REMARK   11  A    between atoms: CA_24  and  CB_28 
REMARK   12  A    between atoms: CB_28  and  CG_29 
REMARK   13  A    between atoms: CZ_32  and  OH_33 
REMARK   14  A    between atoms: CBV_37  and  CBF_36 
REMARK   15  A    between atoms: CBV_37  and  CBN_38 
REMARK   16  A    between atoms: CBV_37  and  CBC_40 
REMARK   17  A    between atoms: CBC_40  and  CBS_41 
REMARK   18  A    between atoms: CBU_45  and  CBT_46 
ROOT
ATOM      1  CBV MOL d          15.253  -8.815 -27.812  0.00  0.00     0.093 C 
ENDROOT
BRANCH   1   2
ATOM      2  CBF MOL d          15.078  -7.481 -27.055  0.00  0.00     0.120 C 
BRANCH   2   3
ATOM      3  PBY MOL d          15.575  -7.547 -25.310  0.00  0.00     0.130 P 
ATOM      4  OAG MOL d          14.212  -7.550 -24.495  0.00  0.00    -0.666 OA
ATOM      5  OAD MOL d          16.493  -8.660 -24.968  0.00  0.00    -0.666 OA
BRANCH   3   6
ATOM      6  CBX MOL d          16.358  -5.947 -24.853  0.00  0.00     0.182 C 
BRANCH   6   7
ATOM      7  NBI MOL d          16.943  -5.374 -26.069  0.00  0.00    -0.322 N 
ATOM      8  CBM MOL d          18.196  -5.583 -26.470  0.00  0.00     0.361 C 
ATOM      9  OAB MOL d          19.014  -6.279 -25.859  0.00  0.00    -0.238 OA
ATOM     10  H   MOL d          16.352  -4.776 -26.647  0.00  0.00     0.165 HD
BRANCH   8  11
ATOM     11  OBJ MOL d          18.526  -4.934 -27.620  0.00  0.00    -0.299 OA
BRANCH  11  12
ATOM     12  CBB MOL d          17.560  -4.680 -28.658  0.00  0.00     0.219 C 
BRANCH  12  13
ATOM     13  CBP MOL d          17.912  -5.185 -29.920  0.00  0.00    -0.034 A 
ATOM     14  CAQ MOL d          19.263  -5.369 -30.230  0.00  0.00     0.009 A 
ATOM     15  CAK MOL d          19.637  -5.889 -31.474  0.00  0.00     0.001 A 
ATOM     16  CAH MOL d          18.663  -6.227 -32.410  0.00  0.00     0.000 A 
ATOM     17  CAL MOL d          17.317  -6.049 -32.098  0.00  0.00     0.001 A 
ATOM     18  CAR MOL d          16.940  -5.532 -30.855  0.00  0.00     0.009 A 
ENDBRANCH  12  13
ENDBRANCH  11  12
ENDBRANCH   8  11
ENDBRANCH   6   7
BRANCH   6  19
ATOM     19  CBE MOL d          15.360  -4.945 -24.256  0.00  0.00     0.074 C 
BRANCH  19  20
ATOM     20  CBQ MOL d          14.360  -4.455 -25.320  0.00  0.00    -0.056 A 
ATOM     21  CAS MOL d          12.989  -4.635 -25.122  0.00  0.00     0.007 A 
ATOM     22  CAM MOL d          12.079  -4.188 -26.083  0.00  0.00     0.001 A 
ATOM     23  CAI MOL d          12.537  -3.556 -27.240  0.00  0.00     0.000 A 
ATOM     24  CAN MOL d          13.908  -3.366 -27.438  0.00  0.00     0.001 A 
ATOM     25  CAT MOL d          14.816  -3.818 -26.477  0.00  0.00     0.007 A 
ENDBRANCH  19  20
ENDBRANCH   6  19
ENDBRANCH   3   6
ENDBRANCH   2   3
ENDBRANCH   1   2
BRANCH   1  26
ATOM     26  CBN MOL d          14.027  -9.725 -27.599  0.00  0.00     0.223 C 
ATOM     27  N   MOL d          13.657  -9.922 -26.332  0.00  0.00    -0.346 N 
ATOM     28  H   MOL d          14.244  -9.559 -25.580  0.00  0.00     0.163 HD
ATOM     29  OAC MOL d          13.427 -10.200 -28.564  0.00  0.00    -0.273 OA
BRANCH  27  30
ATOM     30  CA  MOL d          12.426 -10.649 -25.992  0.00  0.00     0.189 C 
BRANCH  30  31
ATOM     31  C   MOL d          11.432  -9.622 -25.405  0.00  0.00     0.197 C 
ATOM     32  OXT MOL d          11.390  -8.509 -25.962  0.00  0.00    -0.646 OA
ATOM     33  O   MOL d          10.685  -9.972 -24.466  0.00  0.00    -0.646 OA
ENDBRANCH  30  31
BRANCH  30  34
ATOM     34  CB  MOL d          12.668 -11.802 -25.010  0.00  0.00     0.074 C 
BRANCH  34  35
ATOM     35  CG  MOL d          14.051 -11.871 -24.352  0.00  0.00    -0.056 A 
ATOM     36  CD1 MOL d          14.376 -10.992 -23.319  0.00  0.00     0.010 A 
ATOM     37  CE1 MOL d          15.634 -11.064 -22.708  0.00  0.00     0.037 A 
ATOM     38  CZ  MOL d          16.556 -12.026 -23.127  0.00  0.00     0.065 A 
ATOM     39  CE2 MOL d          16.228 -12.910 -24.153  0.00  0.00     0.037 A 
ATOM     40  CD2 MOL d          14.977 -12.834 -24.766  0.00  0.00     0.010 A 
BRANCH  38  41
ATOM     41  OH  MOL d          17.782 -12.113 -22.533  0.00  0.00    -0.361 OA
ATOM     42  H   MOL d          17.697 -11.918 -21.597  0.00  0.00     0.217 HD
ENDBRANCH  38  41
ENDBRANCH  34  35
ENDBRANCH  30  34
ENDBRANCH  27  30
ENDBRANCH   1  26
BRANCH   1  43
ATOM     43  CBC MOL d          15.572  -8.596 -29.301  0.00  0.00     0.082 C 
BRANCH  43  44
ATOM     44  CBS MOL d          17.015  -8.918 -29.741  0.00  0.00     0.082 A 
ATOM     45  CBA MOL d          17.517  -9.482 -30.844  0.00  0.00     0.069 A 
ATOM     46  CBU MOL d          18.860  -9.524 -30.752  0.00  0.00     0.097 A 
ATOM     47  NBG MOL d          19.220  -8.993 -29.589  0.00  0.00    -0.128 NA
ATOM     48  OBK MOL d          18.052  -8.598 -28.924  0.00  0.00    -0.217 OA
BRANCH  46  49
ATOM     49  CBT MOL d          19.771 -10.038 -31.680  0.00  0.00    -0.005 A 
ATOM     50  CAU MOL d          20.847  -9.277 -32.130  0.00  0.00     0.014 A 
ATOM     51  CAO MOL d          21.744  -9.795 -33.065  0.00  0.00     0.001 A 
ATOM     52  CAJ MOL d          21.572 -11.085 -33.561  0.00  0.00     0.000 A 
ATOM     53  CAP MOL d          20.494 -11.855 -33.115  0.00  0.00     0.001 A 
ATOM     54  CAV MOL d          19.593 -11.328 -32.185  0.00  0.00     0.014 A 
ENDBRANCH  46  49
ENDBRANCH  43  44
ENDBRANCH   1  43
TORSDOF 18
ENDMDL
MODEL 10
REMARK VINA RESULT:      -9.7      2.083     10.013
REMARK  18 active torsions:
REMARK  status: ('A' for Active; 'I' for Inactive)
REMARK    1  A    between atoms: CBB_7  and  CBP_6 
REMARK    2  A    between atoms: OBJ_8  and  CBB_7 
REMARK    3  A    between atoms: CBM_9  and  OBJ_8 
REMARK       I    between atoms: NBI_11  and  CBM_9 
REMARK    4  A    between atoms: CBX_12  and  NBI_11 
REMARK    5  A    between atoms: CBX_12  and  CBE_13 
REMARK    6  A    between atoms: PBY_20  and  CBX_12 
REMARK    7  A    between atoms: CBE_13  and  CBQ_14 
REMARK    8  A    between atoms: CBF_36  and  PBY_20 
REMARK    9  A    between atoms: N_23  and  CA_24 
REMARK       I    between atoms: CBN_38  and  N_23 
REMARK   10  A    between atoms: CA_24  and  C_25 
REMARK   11  A    between atoms: CA_24  and  CB_28 
REMARK   12  A    between atoms: CB_28  and  CG_29 
REMARK   13  A    between atoms: CZ_32  and  OH_33 
REMARK   14  A    between atoms: CBV_37  and  CBF_36 
REMARK   15  A    between atoms: CBV_37  and  CBN_38 
REMARK   16  A    between atoms: CBV_37  and  CBC_40 
REMARK   17  A    between atoms: CBC_40  and  CBS_41 
REMARK   18  A    between atoms: CBU_45  and  CBT_46 
ROOT
ATOM      1  CBV MOL d          16.272  -7.029 -25.364  0.00  0.00     0.093 C 
ENDROOT
BRANCH   1   2
ATOM      2  CBF MOL d          17.429  -7.322 -26.343  0.00  0.00     0.120 C 
BRANCH   2   3
ATOM      3  PBY MOL d          18.107  -5.846 -27.156  0.00  0.00     0.130 P 
ATOM      4  OAG MOL d          17.577  -4.623 -26.292  0.00  0.00    -0.666 OA
ATOM      5  OAD MOL d          19.577  -5.864 -27.350  0.00  0.00    -0.666 OA
BRANCH   3   6
ATOM      6  CBX MOL d          17.278  -5.629 -28.782  0.00  0.00     0.182 C 
BRANCH   6   7
ATOM      7  NBI MOL d          18.116  -6.272 -29.799  0.00  0.00    -0.322 N 
ATOM      8  CBM MOL d          19.003  -5.630 -30.557  0.00  0.00     0.361 C 
ATOM      9  OAB MOL d          19.219  -4.415 -30.496  0.00  0.00    -0.238 OA
ATOM     10  H   MOL d          18.013  -7.278 -29.935  0.00  0.00     0.165 HD
BRANCH   8  11
ATOM     11  OBJ MOL d          19.655  -6.429 -31.446  0.00  0.00    -0.299 OA
BRANCH  11  12
ATOM     12  CBB MOL d          19.363  -7.834 -31.566  0.00  0.00     0.219 C 
BRANCH  12  13
ATOM     13  CBP MOL d          20.401  -8.601 -32.120  0.00  0.00    -0.034 A 
ATOM     14  CAQ MOL d          20.553  -9.934 -31.725  0.00  0.00     0.009 A 
ATOM     15  CAK MOL d          21.568 -10.722 -32.277  0.00  0.00     0.001 A 
ATOM     16  CAH MOL d          22.432 -10.182 -33.226  0.00  0.00     0.000 A 
ATOM     17  CAL MOL d          22.276  -8.856 -33.624  0.00  0.00     0.001 A 
ATOM     18  CAR MOL d          21.262  -8.066 -33.076  0.00  0.00     0.009 A 
ENDBRANCH  12  13
ENDBRANCH  11  12
ENDBRANCH   8  11
ENDBRANCH   6   7
BRANCH   6  19
ATOM     19  CBE MOL d          15.874  -6.249 -28.823  0.00  0.00     0.074 C 
BRANCH  19  20
ATOM     20  CBQ MOL d          14.828  -5.296 -28.216  0.00  0.00    -0.056 A 
ATOM     21  CAS MOL d          14.959  -3.916 -28.393  0.00  0.00     0.007 A 
ATOM     22  CAM MOL d          14.009  -3.049 -27.847  0.00  0.00     0.001 A 
ATOM     23  CAI MOL d          12.926  -3.558 -27.129  0.00  0.00     0.000 A 
ATOM     24  CAN MOL d          12.787  -4.938 -26.958  0.00  0.00     0.001 A 
ATOM     25  CAT MOL d          13.741  -5.804 -27.501  0.00  0.00     0.007 A 
ENDBRANCH  19  20
ENDBRANCH   6  19
ENDBRANCH   3   6
ENDBRANCH   2   3
ENDBRANCH   1   2
BRANCH   1  26
ATOM     26  CBN MOL d          15.404  -8.286 -25.157  0.00  0.00     0.223 C 
ATOM     27  N   MOL d          15.897  -9.208 -24.327  0.00  0.00    -0.346 N 
ATOM     28  H   MOL d          16.842  -9.092 -23.960  0.00  0.00     0.163 HD
ATOM     29  OAC MOL d          14.311  -8.388 -25.714  0.00  0.00    -0.273 OA
BRANCH  27  30
ATOM     30  CA  MOL d          15.114 -10.386 -23.930  0.00  0.00     0.189 C 
BRANCH  30  31
ATOM     31  C   MOL d          15.277 -10.554 -22.403  0.00  0.00     0.197 C 
ATOM     32  OXT MOL d          14.335 -10.152 -21.696  0.00  0.00    -0.646 OA
ATOM     33  O   MOL d          16.294 -11.134 -21.965  0.00  0.00    -0.646 OA
ENDBRANCH  30  31
BRANCH  30  34
ATOM     34  CB  MOL d          15.538 -11.660 -24.672  0.00  0.00     0.074 C 
BRANCH  34  35
ATOM     35  CG  MOL d          14.563 -12.205 -25.722  0.00  0.00    -0.056 A 
ATOM     36  CD1 MOL d          13.424 -12.902 -25.322  0.00  0.00     0.010 A 
ATOM     37  CE1 MOL d          12.527 -13.387 -26.280  0.00  0.00     0.037 A 
ATOM     38  CZ  MOL d          12.769 -13.159 -27.637  0.00  0.00     0.065 A 
ATOM     39  CE2 MOL d          13.902 -12.454 -28.037  0.00  0.00     0.037 A 
ATOM     40  CD2 MOL d          14.799 -11.976 -27.081  0.00  0.00     0.010 A 
BRANCH  38  41
ATOM     41  OH  MOL d          11.896 -13.618 -28.581  0.00  0.00    -0.361 OA
ATOM     42  H   MOL d          11.676 -12.905 -29.186  0.00  0.00     0.217 HD
ENDBRANCH  38  41
ENDBRANCH  34  35
ENDBRANCH  30  34
ENDBRANCH  27  30
ENDBRANCH   1  26
BRANCH   1  43
ATOM     43  CBC MOL d          16.775  -6.436 -24.036  0.00  0.00     0.082 C 
BRANCH  43  44
ATOM     44  CBS MOL d          15.795  -5.505 -23.293  0.00  0.00     0.082 A 
ATOM     45  CBA MOL d          15.571  -5.284 -21.993  0.00  0.00     0.069 A 
ATOM     46  CBU MOL d          14.608  -4.352 -21.860  0.00  0.00     0.097 A 
ATOM     47  NBG MOL d          14.210  -3.980 -23.071  0.00  0.00    -0.128 NA
ATOM     48  OBK MOL d          14.958  -4.707 -24.005  0.00  0.00    -0.217 OA
BRANCH  46  49
ATOM     49  CBT MOL d          14.068  -3.835 -20.677  0.00  0.00    -0.005 A 
ATOM     50  CAU MOL d          14.867  -3.166 -19.754  0.00  0.00     0.014 A 
ATOM     51  CAO MOL d          14.320  -2.664 -18.572  0.00  0.00     0.001 A 
ATOM     52  CAJ MOL d          12.965  -2.829 -18.301  0.00  0.00     0.000 A 
ATOM     53  CAP MOL d          12.157  -3.502 -19.222  0.00  0.00     0.001 A 
ATOM     54  CAV MOL d          12.710  -4.010 -20.401  0.00  0.00     0.014 A 
ENDBRANCH  46  49
ENDBRANCH  43  44
ENDBRANCH   1  43
TORSDOF 18
ENDMDL
