MODEL 1
REMARK VINA RESULT:      -8.5      0.000      0.000
REMARK  6 active torsions:
REMARK  status: ('A' for Active; 'I' for Inactive)
REMARK    1  A    between atoms: C20_6  and  C17_7 
REMARK    2  A    between atoms: C4_11  and  C1_12 
REMARK    3  A    between atoms: N12_24  and  C19_25 
REMARK    4  A    between atoms: C19_25  and  C21_26 
REMARK    5  A    between atoms: C21_26  and  C23_27 
REMARK    6  A    between atoms: C23_27  and  N29_28 
ROOT
ATOM      1  C1  Y5H d          -3.690  12.821  23.316  0.00  0.00     0.290 C 
ATOM      2  N3  Y5H d          -5.082  12.719  23.827  0.00  0.00     0.105 N 
ATOM      3  C7  Y5H d          -5.882  13.331  22.751  0.00  0.00     0.238 C 
ATOM      4  C14 Y5H d          -5.748  14.849  22.965  0.00  0.00     0.038 C 
ATOM      5  C15 Y5H d          -5.563  14.978  24.486  0.00  0.00     0.032 C 
ATOM      6  C8  Y5H d          -5.331  13.555  25.029  0.00  0.00     0.274 C 
ATOM      7  C5  Y5H d          -5.297  12.829  21.435  0.00  0.00     0.127 A 
ATOM      8  C2  Y5H d          -3.853  12.404  21.816  0.00  0.00     0.133 A 
ATOM      9  C6  Y5H d          -3.857  10.910  21.524  0.00  0.00     0.234 A 
ATOM     10  O13 Y5H d          -2.934  10.120  21.627  0.00  0.00    -0.272 OA
ATOM     11  C11 Y5H d          -5.995  11.573  20.980  0.00  0.00     0.233 A 
ATOM     12  O18 Y5H d          -7.142  11.426  20.556  0.00  0.00    -0.272 OA
ATOM     13  N12 Y5H d          -5.126  10.472  21.112  0.00  0.00    -0.288 N 
ENDROOT
BRANCH   1  14
ATOM     14  C4  Y5H d          -2.723  11.907  24.024  0.00  0.00     0.094 A 
ATOM     15  N16 Y5H d          -3.108  10.935  24.920  0.00  0.00    -0.224 NA
ATOM     16  C17 Y5H d          -1.980  10.352  25.274  0.00  0.00     0.186 A 
ATOM     17  O10 Y5H d          -0.867  10.935  24.762  0.00  0.00    -0.301 OA
ATOM     18  C9  Y5H d          -1.391  11.913  23.931  0.00  0.00     0.174 A 
BRANCH  16  19
ATOM     19  C20 Y5H d          -1.784   9.341  26.303  0.00  0.00     0.059 A 
ATOM     20  C22 Y5H d          -2.593   9.090  27.405  0.00  0.00     0.025 A 
ATOM     21  C24 Y5H d          -2.204   7.943  28.136  0.00  0.00     0.033 A 
ATOM     22  C25 Y5H d          -1.150   7.311  27.530  0.00  0.00     0.075 A 
ATOM     23 CL1  Y5H d          -0.357   5.834  28.033  0.00  0.00    -0.076 Cl
ATOM     24  S1  Y5H d          -0.541   8.144  26.128  0.00  0.00    -0.074 SA
ENDBRANCH  16  19
ENDBRANCH   1  14
BRANCH  13  25
ATOM     25  C19 Y5H d          -5.437   9.075  20.767  0.00  0.00     0.137 C 
BRANCH  25  26
ATOM     26  C21 Y5H d          -5.335   8.861  19.251  0.00  0.00     0.048 C 
BRANCH  26  27
ATOM     27  C23 Y5H d          -5.255   7.331  19.080  0.00  0.00     0.237 C 
BRANCH  27  28
ATOM     28  N29 Y5H d          -6.317   6.760  18.163  0.00  0.00    -0.079 N 
ATOM     29  C32 Y5H d          -5.971   7.057  16.731  0.00  0.00     0.271 C 
ATOM     30  C31 Y5H d          -7.588   7.516  18.475  0.00  0.00     0.271 C 
ATOM     31  C30 Y5H d          -6.513   5.292  18.334  0.00  0.00     0.271 C 
ENDBRANCH  27  28
ENDBRANCH  26  27
ENDBRANCH  25  26
ENDBRANCH  13  25
TORSDOF 6
ENDMDL
MODEL 2
REMARK VINA RESULT:      -8.0      1.829      2.457
REMARK  6 active torsions:
REMARK  status: ('A' for Active; 'I' for Inactive)
REMARK    1  A    between atoms: C20_6  and  C17_7 
REMARK    2  A    between atoms: C4_11  and  C1_12 
REMARK    3  A    between atoms: N12_24  and  C19_25 
REMARK    4  A    between atoms: C19_25  and  C21_26 
REMARK    5  A    between atoms: C21_26  and  C23_27 
REMARK    6  A    between atoms: C23_27  and  N29_28 
ROOT
ATOM      1  C1  Y5H d          -1.925  12.222  22.141  0.00  0.00     0.290 C 
ATOM      2  N3  Y5H d          -2.616  13.499  21.819  0.00  0.00     0.105 N 
ATOM      3  C7  Y5H d          -2.649  13.501  20.346  0.00  0.00     0.238 C 
ATOM      4  C14 Y5H d          -1.248  13.968  19.913  0.00  0.00     0.038 C 
ATOM      5  C15 Y5H d          -0.811  14.891  21.063  0.00  0.00     0.032 C 
ATOM      6  C8  Y5H d          -1.834  14.703  22.199  0.00  0.00     0.274 C 
ATOM      7  C5  Y5H d          -2.998  12.080  19.916  0.00  0.00     0.127 A 
ATOM      8  C2  Y5H d          -2.596  11.219  21.143  0.00  0.00     0.133 A 
ATOM      9  C6  Y5H d          -3.924  10.617  21.578  0.00  0.00     0.234 A 
ATOM     10  O13 Y5H d          -4.134   9.830  22.486  0.00  0.00    -0.272 OA
ATOM     11  C11 Y5H d          -4.488  11.914  19.760  0.00  0.00     0.233 A 
ATOM     12  O18 Y5H d          -5.241  12.385  18.907  0.00  0.00    -0.272 OA
ATOM     13  N12 Y5H d          -4.986  11.099  20.795  0.00  0.00    -0.288 N 
ENDROOT
BRANCH   1  14
ATOM     14  C4  Y5H d          -2.127  11.775  23.567  0.00  0.00     0.094 A 
ATOM     15  N16 Y5H d          -1.610  10.608  24.082  0.00  0.00    -0.224 NA
ATOM     16  C17 Y5H d          -1.985  10.613  25.345  0.00  0.00     0.186 A 
ATOM     17  O10 Y5H d          -2.802  11.645  25.678  0.00  0.00    -0.301 OA
ATOM     18  C9  Y5H d          -2.841  12.392  24.512  0.00  0.00     0.174 A 
BRANCH  16  19
ATOM     19  C20 Y5H d          -1.824   9.552  26.327  0.00  0.00     0.059 A 
ATOM     20  C22 Y5H d          -2.661   9.257  27.397  0.00  0.00     0.025 A 
ATOM     21  C24 Y5H d          -2.302   8.073  28.081  0.00  0.00     0.033 A 
ATOM     22  C25 Y5H d          -1.239   7.458  27.470  0.00  0.00     0.075 A 
ATOM     23 CL1  Y5H d          -0.474   5.950  27.919  0.00  0.00    -0.076 Cl
ATOM     24  S1  Y5H d          -0.589   8.350  26.124  0.00  0.00    -0.074 SA
ENDBRANCH  16  19
ENDBRANCH   1  14
BRANCH  13  25
ATOM     25  C19 Y5H d          -6.390  10.701  20.986  0.00  0.00     0.137 C 
BRANCH  25  26
ATOM     26  C21 Y5H d          -6.596   9.240  20.563  0.00  0.00     0.048 C 
BRANCH  26  27
ATOM     27  C23 Y5H d          -6.986   9.319  19.075  0.00  0.00     0.237 C 
BRANCH  27  28
ATOM     28  N29 Y5H d          -6.141   8.442  18.172  0.00  0.00    -0.079 N 
ATOM     29  C32 Y5H d          -5.644   9.241  17.001  0.00  0.00     0.271 C 
ATOM     30  C31 Y5H d          -7.074   7.387  17.623  0.00  0.00     0.271 C 
ATOM     31  C30 Y5H d          -4.985   7.818  18.877  0.00  0.00     0.271 C 
ENDBRANCH  27  28
ENDBRANCH  26  27
ENDBRANCH  25  26
ENDBRANCH  13  25
TORSDOF 6
ENDMDL
MODEL 3
REMARK VINA RESULT:      -7.5      1.987      2.425
REMARK  6 active torsions:
REMARK  status: ('A' for Active; 'I' for Inactive)
REMARK    1  A    between atoms: C20_6  and  C17_7 
REMARK    2  A    between atoms: C4_11  and  C1_12 
REMARK    3  A    between atoms: N12_24  and  C19_25 
REMARK    4  A    between atoms: C19_25  and  C21_26 
REMARK    5  A    between atoms: C21_26  and  C23_27 
REMARK    6  A    between atoms: C23_27  and  N29_28 
ROOT
ATOM      1  C1  Y5H d          -2.619  13.873  21.342  0.00  0.00     0.290 C 
ATOM      2  N3  Y5H d          -3.955  14.276  21.856  0.00  0.00     0.105 N 
ATOM      3  C7  Y5H d          -4.625  14.822  20.662  0.00  0.00     0.238 C 
ATOM      4  C14 Y5H d          -4.077  16.252  20.513  0.00  0.00     0.038 C 
ATOM      5  C15 Y5H d          -3.773  16.668  21.961  0.00  0.00     0.032 C 
ATOM      6  C8  Y5H d          -3.898  15.399  22.826  0.00  0.00     0.274 C 
ATOM      7  C5  Y5H d          -4.276  13.892  19.505  0.00  0.00     0.127 A 
ATOM      8  C2  Y5H d          -2.978  13.186  19.981  0.00  0.00     0.133 A 
ATOM      9  C6  Y5H d          -3.399  11.725  20.051  0.00  0.00     0.234 A 
ATOM     10  O13 Y5H d          -2.717  10.757  20.341  0.00  0.00    -0.272 OA
ATOM     11  C11 Y5H d          -5.311  12.806  19.354  0.00  0.00     0.233 A 
ATOM     12  O18 Y5H d          -6.478  12.887  18.972  0.00  0.00    -0.272 OA
ATOM     13  N12 Y5H d          -4.762  11.570  19.747  0.00  0.00    -0.288 N 
ENDROOT
BRANCH   1  14
ATOM     14  C4  Y5H d          -1.892  12.915  22.251  0.00  0.00     0.094 A 
ATOM     15  N16 Y5H d          -2.523  12.103  23.165  0.00  0.00    -0.224 NA
ATOM     16  C17 Y5H d          -1.546  11.413  23.719  0.00  0.00     0.186 A 
ATOM     17  O10 Y5H d          -0.305  11.784  23.314  0.00  0.00    -0.301 OA
ATOM     18  C9  Y5H d          -0.573  12.732  22.340  0.00  0.00     0.174 A 
BRANCH  16  19
ATOM     19  C20 Y5H d          -1.628  10.497  24.847  0.00  0.00     0.059 A 
ATOM     20  C22 Y5H d          -0.634   9.648  25.319  0.00  0.00     0.025 A 
ATOM     21  C24 Y5H d          -0.983   8.991  26.522  0.00  0.00     0.033 A 
ATOM     22  C25 Y5H d          -2.208   9.411  26.972  0.00  0.00     0.075 A 
ATOM     23 CL1  Y5H d          -3.034   8.923  28.435  0.00  0.00    -0.076 Cl
ATOM     24  S1  Y5H d          -3.006  10.526  25.900  0.00  0.00    -0.074 SA
ENDBRANCH  16  19
ENDBRANCH   1  14
BRANCH  13  25
ATOM     25  C19 Y5H d          -5.455  10.272  19.740  0.00  0.00     0.137 C 
BRANCH  25  26
ATOM     26  C21 Y5H d          -5.086   9.472  18.482  0.00  0.00     0.048 C 
BRANCH  26  27
ATOM     27  C23 Y5H d          -5.090   8.002  18.943  0.00  0.00     0.237 C 
BRANCH  27  28
ATOM     28  N29 Y5H d          -6.007   7.108  18.131  0.00  0.00    -0.079 N 
ATOM     29  C32 Y5H d          -7.371   7.068  18.760  0.00  0.00     0.271 C 
ATOM     30  C31 Y5H d          -5.432   5.715  18.236  0.00  0.00     0.271 C 
ATOM     31  C30 Y5H d          -6.127   7.531  16.707  0.00  0.00     0.271 C 
ENDBRANCH  27  28
ENDBRANCH  26  27
ENDBRANCH  25  26
ENDBRANCH  13  25
TORSDOF 6
ENDMDL
MODEL 4
REMARK VINA RESULT:      -7.4      4.689      7.435
REMARK  6 active torsions:
REMARK  status: ('A' for Active; 'I' for Inactive)
REMARK    1  A    between atoms: C20_6  and  C17_7 
REMARK    2  A    between atoms: C4_11  and  C1_12 
REMARK    3  A    between atoms: N12_24  and  C19_25 
REMARK    4  A    between atoms: C19_25  and  C21_26 
REMARK    5  A    between atoms: C21_26  and  C23_27 
REMARK    6  A    between atoms: C23_27  and  N29_28 
ROOT
ATOM      1  C1  Y5H d          -2.803  10.536  22.417  0.00  0.00     0.290 C 
ATOM      2  N3  Y5H d          -2.766  11.578  23.477  0.00  0.00     0.105 N 
ATOM      3  C7  Y5H d          -1.324  11.763  23.718  0.00  0.00     0.238 C 
ATOM      4  C14 Y5H d          -0.918  10.594  24.632  0.00  0.00     0.038 C 
ATOM      5  C15 Y5H d          -2.198  10.309  25.435  0.00  0.00     0.032 C 
ATOM      6  C8  Y5H d          -3.329  11.119  24.772  0.00  0.00     0.274 C 
ATOM      7  C5  Y5H d          -0.650  11.753  22.350  0.00  0.00     0.127 A 
ATOM      8  C2  Y5H d          -1.668  11.007  21.446  0.00  0.00     0.133 A 
ATOM      9  C6  Y5H d          -2.048  12.069  20.424  0.00  0.00     0.234 A 
ATOM     10  O13 Y5H d          -2.798  11.962  19.469  0.00  0.00    -0.272 OA
ATOM     11  C11 Y5H d          -0.541  13.149  21.793  0.00  0.00     0.233 A 
ATOM     12  O18 Y5H d           0.167  14.085  22.164  0.00  0.00    -0.272 OA
ATOM     13  N12 Y5H d          -1.426  13.297  20.707  0.00  0.00    -0.288 N 
ENDROOT
BRANCH   1  14
ATOM     14  C4  Y5H d          -4.126  10.461  21.697  0.00  0.00     0.094 A 
ATOM     15  N16 Y5H d          -4.476   9.435  20.849  0.00  0.00    -0.224 NA
ATOM     16  C17 Y5H d          -5.701   9.732  20.465  0.00  0.00     0.186 A 
ATOM     17  O10 Y5H d          -6.148  10.933  20.911  0.00  0.00    -0.301 OA
ATOM     18  C9  Y5H d          -5.115  11.357  21.732  0.00  0.00     0.174 A 
BRANCH  16  19
ATOM     19  C20 Y5H d          -6.510   9.056  19.461  0.00  0.00     0.059 A 
ATOM     20  C22 Y5H d          -6.974   7.746  19.493  0.00  0.00     0.025 A 
ATOM     21  C24 Y5H d          -7.855   7.437  18.431  0.00  0.00     0.033 A 
ATOM     22  C25 Y5H d          -8.094   8.543  17.656  0.00  0.00     0.075 A 
ATOM     23 CL1  Y5H d          -9.149   8.666  16.265  0.00  0.00    -0.076 Cl
ATOM     24  S1  Y5H d          -7.180   9.946  18.131  0.00  0.00    -0.074 SA
ENDBRANCH  16  19
ENDBRANCH   1  14
BRANCH  13  25
ATOM     25  C19 Y5H d          -1.609  14.512  19.897  0.00  0.00     0.137 C 
BRANCH  25  26
ATOM     26  C21 Y5H d          -0.634  14.519  18.711  0.00  0.00     0.048 C 
BRANCH  26  27
ATOM     27  C23 Y5H d          -1.511  14.856  17.490  0.00  0.00     0.237 C 
BRANCH  27  28
ATOM     28  N29 Y5H d          -1.171  14.051  16.251  0.00  0.00    -0.079 N 
ATOM     29  C32 Y5H d          -2.335  13.179  15.872  0.00  0.00     0.271 C 
ATOM     30  C31 Y5H d          -0.041  13.130  16.649  0.00  0.00     0.271 C 
ATOM     31  C30 Y5H d          -0.785  14.899  15.088  0.00  0.00     0.271 C 
ENDBRANCH  27  28
ENDBRANCH  26  27
ENDBRANCH  25  26
ENDBRANCH  13  25
TORSDOF 6
ENDMDL
MODEL 5
REMARK VINA RESULT:      -7.3      2.628      4.263
REMARK  6 active torsions:
REMARK  status: ('A' for Active; 'I' for Inactive)
REMARK    1  A    between atoms: C20_6  and  C17_7 
REMARK    2  A    between atoms: C4_11  and  C1_12 
REMARK    3  A    between atoms: N12_24  and  C19_25 
REMARK    4  A    between atoms: C19_25  and  C21_26 
REMARK    5  A    between atoms: C21_26  and  C23_27 
REMARK    6  A    between atoms: C23_27  and  N29_28 
ROOT
ATOM      1  C1  Y5H d          -1.610  12.148  22.108  0.00  0.00     0.290 C 
ATOM      2  N3  Y5H d          -2.212  13.465  21.772  0.00  0.00     0.105 N 
ATOM      3  C7  Y5H d          -2.201  13.476  20.300  0.00  0.00     0.238 C 
ATOM      4  C14 Y5H d          -0.761  13.857  19.911  0.00  0.00     0.038 C 
ATOM      5  C15 Y5H d          -0.304  14.748  21.079  0.00  0.00     0.032 C 
ATOM      6  C8  Y5H d          -1.370  14.618  22.183  0.00  0.00     0.274 C 
ATOM      7  C5  Y5H d          -2.622  12.080  19.851  0.00  0.00     0.127 A 
ATOM      8  C2  Y5H d          -2.310  11.191  21.085  0.00  0.00     0.133 A 
ATOM      9  C6  Y5H d          -3.686  10.670  21.477  0.00  0.00     0.234 A 
ATOM     10  O13 Y5H d          -3.970   9.894  22.373  0.00  0.00    -0.272 OA
ATOM     11  C11 Y5H d          -4.114  12.006  19.650  0.00  0.00     0.233 A 
ATOM     12  O18 Y5H d          -4.811  12.525  18.777  0.00  0.00    -0.272 OA
ATOM     13  N12 Y5H d          -4.692  11.219  20.665  0.00  0.00    -0.288 N 
ENDROOT
BRANCH   1  14
ATOM     14  C4  Y5H d          -1.882  11.709  23.524  0.00  0.00     0.094 A 
ATOM     15  N16 Y5H d          -1.392  10.544  24.070  0.00  0.00    -0.224 NA
ATOM     16  C17 Y5H d          -1.828  10.556  25.313  0.00  0.00     0.186 A 
ATOM     17  O10 Y5H d          -2.659  11.589  25.601  0.00  0.00    -0.301 OA
ATOM     18  C9  Y5H d          -2.640  12.330  24.431  0.00  0.00     0.174 A 
BRANCH  16  19
ATOM     19  C20 Y5H d          -1.716   9.500  26.308  0.00  0.00     0.059 A 
ATOM     20  C22 Y5H d          -2.584   9.235  27.361  0.00  0.00     0.025 A 
ATOM     21  C24 Y5H d          -2.271   8.048  28.063  0.00  0.00     0.033 A 
ATOM     22  C25 Y5H d          -1.211   7.402  27.481  0.00  0.00     0.075 A 
ATOM     23 CL1  Y5H d          -0.494   5.879  27.960  0.00  0.00    -0.076 Cl
ATOM     24  S1  Y5H d          -0.508   8.265  26.143  0.00  0.00    -0.074 SA
ENDBRANCH  16  19
ENDBRANCH   1  14
BRANCH  13  25
ATOM     25  C19 Y5H d          -6.123  10.907  20.812  0.00  0.00     0.137 C 
BRANCH  25  26
ATOM     26  C21 Y5H d          -6.761  11.805  21.881  0.00  0.00     0.048 C 
BRANCH  26  27
ATOM     27  C23 Y5H d          -7.760  12.683  21.103  0.00  0.00     0.237 C 
BRANCH  27  28
ATOM     28  N29 Y5H d          -7.965  14.058  21.706  0.00  0.00    -0.079 N 
ATOM     29  C32 Y5H d          -6.731  14.893  21.510  0.00  0.00     0.271 C 
ATOM     30  C31 Y5H d          -8.121  13.843  23.193  0.00  0.00     0.271 C 
ATOM     31  C30 Y5H d          -9.146  14.775  21.143  0.00  0.00     0.271 C 
ENDBRANCH  27  28
ENDBRANCH  26  27
ENDBRANCH  25  26
ENDBRANCH  13  25
TORSDOF 6
ENDMDL
MODEL 6
REMARK VINA RESULT:      -7.3      3.975      7.569
REMARK  6 active torsions:
REMARK  status: ('A' for Active; 'I' for Inactive)
REMARK    1  A    between atoms: C20_6  and  C17_7 
REMARK    2  A    between atoms: C4_11  and  C1_12 
REMARK    3  A    between atoms: N12_24  and  C19_25 
REMARK    4  A    between atoms: C19_25  and  C21_26 
REMARK    5  A    between atoms: C21_26  and  C23_27 
REMARK    6  A    between atoms: C23_27  and  N29_28 
ROOT
ATOM      1  C1  Y5H d          -2.856  10.430  22.711  0.00  0.00     0.290 C 
ATOM      2  N3  Y5H d          -2.700  11.511  23.720  0.00  0.00     0.105 N 
ATOM      3  C7  Y5H d          -1.262  11.475  24.034  0.00  0.00     0.238 C 
ATOM      4  C14 Y5H d          -1.096  10.311  25.026  0.00  0.00     0.038 C 
ATOM      5  C15 Y5H d          -2.444  10.281  25.766  0.00  0.00     0.032 C 
ATOM      6  C8  Y5H d          -3.393  11.223  25.001  0.00  0.00     0.274 C 
ATOM      7  C5  Y5H d          -0.532  11.279  22.709  0.00  0.00     0.127 A 
ATOM      8  C2  Y5H d          -1.612  10.656  21.786  0.00  0.00     0.133 A 
ATOM      9  C6  Y5H d          -1.763  11.705  20.693  0.00  0.00     0.234 A 
ATOM     10  O13 Y5H d          -2.473  11.665  19.703  0.00  0.00    -0.272 OA
ATOM     11  C11 Y5H d          -0.169  12.606  22.092  0.00  0.00     0.233 A 
ATOM     12  O18 Y5H d           0.663  13.436  22.458  0.00  0.00    -0.272 OA
ATOM     13  N12 Y5H d          -0.964  12.831  20.951  0.00  0.00    -0.288 N 
ENDROOT
BRANCH   1  14
ATOM     14  C4  Y5H d          -4.136  10.526  21.921  0.00  0.00     0.094 A 
ATOM     15  N16 Y5H d          -4.602   9.526  21.098  0.00  0.00    -0.224 NA
ATOM     16  C17 Y5H d          -5.743   9.992  20.632  0.00  0.00     0.186 A 
ATOM     17  O10 Y5H d          -6.016  11.269  21.002  0.00  0.00    -0.301 OA
ATOM     18  C9  Y5H d          -4.971  11.566  21.862  0.00  0.00     0.174 A 
BRANCH  16  19
ATOM     19  C20 Y5H d          -6.598   9.401  19.613  0.00  0.00     0.059 A 
ATOM     20  C22 Y5H d          -7.008   8.076  19.519  0.00  0.00     0.025 A 
ATOM     21  C24 Y5H d          -7.954   7.853  18.491  0.00  0.00     0.033 A 
ATOM     22  C25 Y5H d          -8.292   9.029  17.874  0.00  0.00     0.075 A 
ATOM     23 CL1  Y5H d          -9.453   9.265  16.585  0.00  0.00    -0.076 Cl
ATOM     24  S1  Y5H d          -7.400  10.408  18.450  0.00  0.00    -0.074 SA
ENDBRANCH  16  19
ENDBRANCH   1  14
BRANCH  13  25
ATOM     25  C19 Y5H d          -0.907  14.011  20.073  0.00  0.00     0.137 C 
BRANCH  25  26
ATOM     26  C21 Y5H d          -1.529  15.229  20.770  0.00  0.00     0.048 C 
BRANCH  26  27
ATOM     27  C23 Y5H d          -3.037  15.116  20.474  0.00  0.00     0.237 C 
BRANCH  27  28
ATOM     28  N29 Y5H d          -3.922  15.534  21.632  0.00  0.00    -0.079 N 
ATOM     29  C32 Y5H d          -5.364  15.293  21.287  0.00  0.00     0.271 C 
ATOM     30  C31 Y5H d          -3.745  17.028  21.774  0.00  0.00     0.271 C 
ATOM     31  C30 Y5H d          -3.591  14.834  22.906  0.00  0.00     0.271 C 
ENDBRANCH  27  28
ENDBRANCH  26  27
ENDBRANCH  25  26
ENDBRANCH  13  25
TORSDOF 6
ENDMDL
MODEL 7
REMARK VINA RESULT:      -7.1      4.027      7.749
REMARK  6 active torsions:
REMARK  status: ('A' for Active; 'I' for Inactive)
REMARK    1  A    between atoms: C20_6  and  C17_7 
REMARK    2  A    between atoms: C4_11  and  C1_12 
REMARK    3  A    between atoms: N12_24  and  C19_25 
REMARK    4  A    between atoms: C19_25  and  C21_26 
REMARK    5  A    between atoms: C21_26  and  C23_27 
REMARK    6  A    between atoms: C23_27  and  N29_28 
ROOT
ATOM      1  C1  Y5H d          -3.167  12.592  20.771  0.00  0.00     0.290 C 
ATOM      2  N3  Y5H d          -2.616  11.892  21.961  0.00  0.00     0.105 N 
ATOM      3  C7  Y5H d          -2.153  12.997  22.818  0.00  0.00     0.238 C 
ATOM      4  C14 Y5H d          -0.790  13.412  22.236  0.00  0.00     0.038 C 
ATOM      5  C15 Y5H d          -0.246  12.103  21.639  0.00  0.00     0.032 C 
ATOM      6  C8  Y5H d          -1.404  11.088  21.661  0.00  0.00     0.274 C 
ATOM      7  C5  Y5H d          -3.222  14.081  22.746  0.00  0.00     0.127 A 
ATOM      8  C2  Y5H d          -3.966  13.773  21.419  0.00  0.00     0.133 A 
ATOM      9  C6  Y5H d          -5.377  13.456  21.893  0.00  0.00     0.234 A 
ATOM     10  O13 Y5H d          -6.356  13.185  21.218  0.00  0.00    -0.272 OA
ATOM     11  C11 Y5H d          -4.240  13.909  23.845  0.00  0.00     0.233 A 
ATOM     12  O18 Y5H d          -4.115  14.076  25.058  0.00  0.00    -0.272 OA
ATOM     13  N12 Y5H d          -5.464  13.483  23.295  0.00  0.00    -0.288 N 
ENDROOT
BRANCH   1  14
ATOM     14  C4  Y5H d          -4.074  11.728  19.933  0.00  0.00     0.094 A 
ATOM     15  N16 Y5H d          -4.609  10.536  20.368  0.00  0.00    -0.224 NA
ATOM     16  C17 Y5H d          -5.355  10.126  19.362  0.00  0.00     0.186 A 
ATOM     17  O10 Y5H d          -5.270  10.904  18.253  0.00  0.00    -0.301 OA
ATOM     18  C9  Y5H d          -4.461  11.948  18.674  0.00  0.00     0.174 A 
BRANCH  16  19
ATOM     19  C20 Y5H d          -6.048   8.854  19.226  0.00  0.00     0.059 A 
ATOM     20  C22 Y5H d          -7.421   8.640  19.193  0.00  0.00     0.025 A 
ATOM     21  C24 Y5H d          -7.774   7.301  18.907  0.00  0.00     0.033 A 
ATOM     22  C25 Y5H d          -6.658   6.543  18.661  0.00  0.00     0.075 A 
ATOM     23 CL1  Y5H d          -6.591   4.851  18.218  0.00  0.00    -0.076 Cl
ATOM     24  S1  Y5H d          -5.161   7.406  18.873  0.00  0.00    -0.074 SA
ENDBRANCH  16  19
ENDBRANCH   1  14
BRANCH  13  25
ATOM     25  C19 Y5H d          -6.702  13.209  24.042  0.00  0.00     0.137 C 
BRANCH  25  26
ATOM     26  C21 Y5H d          -7.658  14.406  23.955  0.00  0.00     0.048 C 
BRANCH  26  27
ATOM     27  C23 Y5H d          -7.481  15.142  25.297  0.00  0.00     0.237 C 
BRANCH  27  28
ATOM     28  N29 Y5H d          -7.018  16.578  25.152  0.00  0.00    -0.079 N 
ATOM     29  C32 Y5H d          -5.794  16.809  25.992  0.00  0.00     0.271 C 
ATOM     30  C31 Y5H d          -8.121  17.433  25.734  0.00  0.00     0.271 C 
ATOM     31  C30 Y5H d          -6.733  16.963  23.740  0.00  0.00     0.271 C 
ENDBRANCH  27  28
ENDBRANCH  26  27
ENDBRANCH  25  26
ENDBRANCH  13  25
TORSDOF 6
ENDMDL
MODEL 8
REMARK VINA RESULT:      -7.0      4.333      7.374
REMARK  6 active torsions:
REMARK  status: ('A' for Active; 'I' for Inactive)
REMARK    1  A    between atoms: C20_6  and  C17_7 
REMARK    2  A    between atoms: C4_11  and  C1_12 
REMARK    3  A    between atoms: N12_24  and  C19_25 
REMARK    4  A    between atoms: C19_25  and  C21_26 
REMARK    5  A    between atoms: C21_26  and  C23_27 
REMARK    6  A    between atoms: C23_27  and  N29_28 
ROOT
ATOM      1  C1  Y5H d          -6.682   8.475  18.776  0.00  0.00     0.290 C 
ATOM      2  N3  Y5H d          -5.807   7.685  17.870  0.00  0.00     0.105 N 
ATOM      3  C7  Y5H d          -6.732   7.235  16.816  0.00  0.00     0.238 C 
ATOM      4  C14 Y5H d          -7.468   6.024  17.418  0.00  0.00     0.038 C 
ATOM      5  C15 Y5H d          -6.432   5.424  18.383  0.00  0.00     0.032 C 
ATOM      6  C8  Y5H d          -5.283   6.444  18.494  0.00  0.00     0.274 C 
ATOM      7  C5  Y5H d          -7.635   8.421  16.494  0.00  0.00     0.127 A 
ATOM      8  C2  Y5H d          -7.546   9.304  17.767  0.00  0.00     0.133 A 
ATOM      9  C6  Y5H d          -6.923  10.589  17.238  0.00  0.00     0.234 A 
ATOM     10  O13 Y5H d          -6.680  11.615  17.850  0.00  0.00    -0.272 OA
ATOM     11  C11 Y5H d          -7.060   9.246  15.371  0.00  0.00     0.233 A 
ATOM     12  O18 Y5H d          -6.951   8.971  14.176  0.00  0.00    -0.272 OA
ATOM     13  N12 Y5H d          -6.603  10.480  15.875  0.00  0.00    -0.288 N 
ENDROOT
BRANCH   1  14
ATOM     14  C4  Y5H d          -5.919   9.387  19.703  0.00  0.00     0.094 A 
ATOM     15  N16 Y5H d          -4.562   9.601  19.616  0.00  0.00    -0.224 NA
ATOM     16  C17 Y5H d          -4.307  10.472  20.571  0.00  0.00     0.186 A 
ATOM     17  O10 Y5H d          -5.375  10.770  21.353  0.00  0.00    -0.301 OA
ATOM     18  C9  Y5H d          -6.405  10.076  20.738  0.00  0.00     0.174 A 
BRANCH  16  19
ATOM     19  C20 Y5H d          -3.007  10.953  21.015  0.00  0.00     0.059 A 
ATOM     20  C22 Y5H d          -1.955  10.198  21.521  0.00  0.00     0.025 A 
ATOM     21  C24 Y5H d          -0.774  10.948  21.727  0.00  0.00     0.033 A 
ATOM     22  C25 Y5H d          -0.937  12.242  21.307  0.00  0.00     0.075 A 
ATOM     23 CL1  Y5H d           0.252  13.527  21.314  0.00  0.00    -0.076 Cl
ATOM     24  S1  Y5H d          -2.547  12.605  20.753  0.00  0.00    -0.074 SA
ENDBRANCH  16  19
ENDBRANCH   1  14
BRANCH  13  25
ATOM     25  C19 Y5H d          -5.982  11.560  15.092  0.00  0.00     0.137 C 
BRANCH  25  26
ATOM     26  C21 Y5H d          -4.452  11.486  15.195  0.00  0.00     0.048 C 
BRANCH  26  27
ATOM     27  C23 Y5H d          -3.966  12.879  14.750  0.00  0.00     0.237 C 
BRANCH  27  28
ATOM     28  N29 Y5H d          -2.962  13.508  15.695  0.00  0.00    -0.079 N 
ATOM     29  C32 Y5H d          -3.385  13.279  17.118  0.00  0.00     0.271 C 
ATOM     30  C31 Y5H d          -3.032  14.998  15.448  0.00  0.00     0.271 C 
ATOM     31  C30 Y5H d          -1.574  13.000  15.499  0.00  0.00     0.271 C 
ENDBRANCH  27  28
ENDBRANCH  26  27
ENDBRANCH  25  26
ENDBRANCH  13  25
TORSDOF 6
ENDMDL
MODEL 9
REMARK VINA RESULT:      -6.7      4.501      6.959
REMARK  6 active torsions:
REMARK  status: ('A' for Active; 'I' for Inactive)
REMARK    1  A    between atoms: C20_6  and  C17_7 
REMARK    2  A    between atoms: C4_11  and  C1_12 
REMARK    3  A    between atoms: N12_24  and  C19_25 
REMARK    4  A    between atoms: C19_25  and  C21_26 
REMARK    5  A    between atoms: C21_26  and  C23_27 
REMARK    6  A    between atoms: C23_27  and  N29_28 
ROOT
ATOM      1  C1  Y5H d          -4.654  12.666  22.069  0.00  0.00     0.290 C 
ATOM      2  N3  Y5H d          -4.790  14.122  21.800  0.00  0.00     0.105 N 
ATOM      3  C7  Y5H d          -3.898  14.733  22.800  0.00  0.00     0.238 C 
ATOM      4  C14 Y5H d          -4.706  14.739  24.110  0.00  0.00     0.038 C 
ATOM      5  C15 Y5H d          -6.161  14.862  23.627  0.00  0.00     0.032 C 
ATOM      6  C8  Y5H d          -6.144  14.651  22.101  0.00  0.00     0.274 C 
ATOM      7  C5  Y5H d          -2.639  13.873  22.845  0.00  0.00     0.127 A 
ATOM      8  C2  Y5H d          -3.110  12.508  22.278  0.00  0.00     0.133 A 
ATOM      9  C6  Y5H d          -2.268  12.360  21.019  0.00  0.00     0.234 A 
ATOM     10  O13 Y5H d          -2.241  11.427  20.234  0.00  0.00    -0.272 OA
ATOM     11  C11 Y5H d          -1.600  14.389  21.882  0.00  0.00     0.233 A 
ATOM     12  O18 Y5H d          -0.929  15.420  21.936  0.00  0.00    -0.272 OA
ATOM     13  N12 Y5H d          -1.468  13.494  20.802  0.00  0.00    -0.288 N 
ENDROOT
BRANCH   1  14
ATOM     14  C4  Y5H d          -5.132  11.800  20.931  0.00  0.00     0.094 A 
ATOM     15  N16 Y5H d          -5.147  10.424  20.972  0.00  0.00    -0.224 NA
ATOM     16  C17 Y5H d          -5.657  10.067  19.811  0.00  0.00     0.186 A 
ATOM     17  O10 Y5H d          -5.883  11.101  18.961  0.00  0.00    -0.301 OA
ATOM     18  C9  Y5H d          -5.564  12.206  19.735  0.00  0.00     0.174 A 
BRANCH  16  19
ATOM     19  C20 Y5H d          -5.781   8.724  19.267  0.00  0.00     0.059 A 
ATOM     20  C22 Y5H d          -4.763   7.915  18.773  0.00  0.00     0.025 A 
ATOM     21  C24 Y5H d          -5.192   6.607  18.450  0.00  0.00     0.033 A 
ATOM     22  C25 Y5H d          -6.513   6.432  18.771  0.00  0.00     0.075 A 
ATOM     23 CL1  Y5H d          -7.471   4.977  18.602  0.00  0.00    -0.076 Cl
ATOM     24  S1  Y5H d          -7.288   7.871  19.371  0.00  0.00    -0.074 SA
ENDBRANCH  16  19
ENDBRANCH   1  14
BRANCH  13  25
ATOM     25  C19 Y5H d          -0.553  13.644  19.659  0.00  0.00     0.137 C 
BRANCH  25  26
ATOM     26  C21 Y5H d          -1.295  14.230  18.450  0.00  0.00     0.048 C 
BRANCH  26  27
ATOM     27  C23 Y5H d          -0.619  13.579  17.228  0.00  0.00     0.237 C 
BRANCH  27  28
ATOM     28  N29 Y5H d          -0.737  14.395  15.956  0.00  0.00    -0.079 N 
ATOM     29  C32 Y5H d          -2.079  14.163  15.321  0.00  0.00     0.271 C 
ATOM     30  C31 Y5H d           0.302  13.842  15.007  0.00  0.00     0.271 C 
ATOM     31  C30 Y5H d          -0.536  15.856  16.175  0.00  0.00     0.271 C 
ENDBRANCH  27  28
ENDBRANCH  26  27
ENDBRANCH  25  26
ENDBRANCH  13  25
TORSDOF 6
ENDMDL
MODEL 10
REMARK VINA RESULT:      -6.5      4.651      7.537
REMARK  6 active torsions:
REMARK  status: ('A' for Active; 'I' for Inactive)
REMARK    1  A    between atoms: C20_6  and  C17_7 
REMARK    2  A    between atoms: C4_11  and  C1_12 
REMARK    3  A    between atoms: N12_24  and  C19_25 
REMARK    4  A    between atoms: C19_25  and  C21_26 
REMARK    5  A    between atoms: C21_26  and  C23_27 
REMARK    6  A    between atoms: C23_27  and  N29_28 
ROOT
ATOM      1  C1  Y5H d          -6.649   8.513  18.739  0.00  0.00     0.290 C 
ATOM      2  N3  Y5H d          -5.770   7.671  17.886  0.00  0.00     0.105 N 
ATOM      3  C7  Y5H d          -6.664   7.250  16.793  0.00  0.00     0.238 C 
ATOM      4  C14 Y5H d          -7.484   6.084  17.372  0.00  0.00     0.038 C 
ATOM      5  C15 Y5H d          -6.526   5.449  18.393  0.00  0.00     0.032 C 
ATOM      6  C8  Y5H d          -5.336   6.415  18.548  0.00  0.00     0.274 C 
ATOM      7  C5  Y5H d          -7.493   8.472  16.414  0.00  0.00     0.127 A 
ATOM      8  C2  Y5H d          -7.423   9.368  17.679  0.00  0.00     0.133 A 
ATOM      9  C6  Y5H d          -6.715  10.615  17.168  0.00  0.00     0.234 A 
ATOM     10  O13 Y5H d          -6.453  11.637  17.778  0.00  0.00    -0.272 OA
ATOM     11  C11 Y5H d          -6.827   9.255  15.311  0.00  0.00     0.233 A 
ATOM     12  O18 Y5H d          -6.673   8.959  14.126  0.00  0.00    -0.272 OA
ATOM     13  N12 Y5H d          -6.336  10.472  15.823  0.00  0.00    -0.288 N 
ENDROOT
BRANCH   1  14
ATOM     14  C4  Y5H d          -5.888   9.400  19.691  0.00  0.00     0.094 A 
ATOM     15  N16 Y5H d          -4.528   9.602  19.625  0.00  0.00    -0.224 NA
ATOM     16  C17 Y5H d          -4.276  10.454  20.599  0.00  0.00     0.186 A 
ATOM     17  O10 Y5H d          -5.352  10.749  21.371  0.00  0.00    -0.301 OA
ATOM     18  C9  Y5H d          -6.381  10.077  20.731  0.00  0.00     0.174 A 
BRANCH  16  19
ATOM     19  C20 Y5H d          -2.978  10.912  21.068  0.00  0.00     0.059 A 
ATOM     20  C22 Y5H d          -1.958  10.143  21.617  0.00  0.00     0.025 A 
ATOM     21  C24 Y5H d          -0.765  10.869  21.840  0.00  0.00     0.033 A 
ATOM     22  C25 Y5H d          -0.886  12.158  21.390  0.00  0.00     0.075 A 
ATOM     23 CL1  Y5H d           0.334  13.414  21.403  0.00  0.00    -0.076 Cl
ATOM     24  S1  Y5H d          -2.471  12.547  20.786  0.00  0.00    -0.074 SA
ENDBRANCH  16  19
ENDBRANCH   1  14
BRANCH  13  25
ATOM     25  C19 Y5H d          -5.627  11.511  15.058  0.00  0.00     0.137 C 
BRANCH  25  26
ATOM     26  C21 Y5H d          -6.610  12.293  14.176  0.00  0.00     0.048 C 
BRANCH  26  27
ATOM     27  C23 Y5H d          -5.713  13.126  13.241  0.00  0.00     0.237 C 
BRANCH  27  28
ATOM     28  N29 Y5H d          -6.015  12.933  11.768  0.00  0.00    -0.079 N 
ATOM     29  C32 Y5H d          -7.488  13.097  11.522  0.00  0.00     0.271 C 
ATOM     30  C31 Y5H d          -5.674  11.494  11.457  0.00  0.00     0.271 C 
ATOM     31  C30 Y5H d          -5.255  13.864  10.886  0.00  0.00     0.271 C 
ENDBRANCH  27  28
ENDBRANCH  26  27
ENDBRANCH  25  26
ENDBRANCH  13  25
TORSDOF 6
ENDMDL
