MODEL 1
REMARK VINA RESULT:     -11.4      0.000      0.000
REMARK  2 active torsions:
REMARK  status: ('A' for Active; 'I' for Inactive)
REMARK       I    between atoms: N4_8  and  C11_17 
REMARK    1  A    between atoms: C16_22  and  N4_8 
REMARK    2  A    between atoms: C11_17  and  C12_18 
ROOT
ATOM      1  C1  YKI d           0.250   9.293  24.045  0.00  0.00     0.118 A 
ATOM      2  N1  YKI d           0.687   8.150  24.713  0.00  0.00    -0.271 NA
ATOM      3  C2  YKI d           2.030   7.961  25.024  0.00  0.00     0.148 A 
ATOM      4  N2  YKI d           4.321   9.077  24.804  0.00  0.00    -0.337 N 
ATOM      5  C3  YKI d           1.146  10.317  23.657  0.00  0.00     0.053 A 
ATOM      6  N3  YKI d           3.627  10.897  23.744  0.00  0.00    -0.228 NA
ATOM      7  C4  YKI d           4.702  10.242  24.254  0.00  0.00     0.140 A 
ATOM      8  C5  YKI d           2.508  10.142  23.961  0.00  0.00     0.088 A 
ATOM      9  C6  YKI d           2.962   8.953  24.659  0.00  0.00     0.080 A 
ATOM     10  C7  YKI d           6.081  10.679  24.223  0.00  0.00     0.022 A 
ATOM     11  C8  YKI d           8.878  11.378  24.068  0.00  0.00     0.010 A 
ATOM     12  C9  YKI d           8.439  10.079  23.674  0.00  0.00     0.002 A 
ATOM     13  C10 YKI d           7.046   9.749  23.759  0.00  0.00     0.016 A 
ATOM     14  C16 YKI d           8.301  13.726  24.977  0.00  0.00     0.153 A 
ATOM     15  C17 YKI d           7.936  12.360  24.551  0.00  0.00    -0.019 A 
ATOM     16  C18 YKI d           6.566  12.067  24.648  0.00  0.00    -0.003 A 
ATOM     17  C19 YKI d           6.899  14.270  25.383  0.00  0.00    -0.020 A 
ATOM     18  C20 YKI d           5.883  13.272  25.169  0.00  0.00    -0.016 A 
ATOM     19  C21 YKI d           4.494  13.603  25.486  0.00  0.00     0.013 A 
ATOM     20  C22 YKI d           4.151  14.898  25.997  0.00  0.00     0.001 A 
ATOM     21  C23 YKI d           5.193  15.891  26.206  0.00  0.00     0.001 A 
ATOM     22  C24 YKI d           6.558  15.577  25.898  0.00  0.00     0.010 A 
ATOM     23  H   YKI d           4.937   8.399  25.252  0.00  0.00     0.167 HD
ENDROOT
BRANCH  14  24
ATOM     24  N4  YKI d           9.250  13.846  25.626  0.00  0.00    -0.344 N 
ATOM     25  C11 YKI d          10.036  14.878  25.996  0.00  0.00     0.253 C 
ATOM     26  O13 YKI d           9.705  15.997  25.575  0.00  0.00    -0.268 OA
ATOM     27  H   YKI d           9.571  12.957  26.012  0.00  0.00     0.163 HD
BRANCH  25  28
ATOM     28  C12 YKI d          11.273  14.722  26.845  0.00  0.00     0.047 A 
ATOM     29  C14 YKI d          11.344  14.969  28.264  0.00  0.00     0.037 A 
ATOM     30  C15 YKI d          12.607  14.764  28.921  0.00  0.00     0.120 A 
ATOM     31  N5  YKI d          13.721  14.349  28.198  0.00  0.00    -0.242 NA
ATOM     32  C26 YKI d          13.666  14.104  26.822  0.00  0.00     0.138 A 
ATOM     33  N6  YKI d          14.701  13.693  26.013  0.00  0.00    -0.350 N 
ATOM     34  C25 YKI d          12.498  14.281  26.111  0.00  0.00     0.027 A 
ATOM     35  C27 YKI d          14.183  13.588  24.734  0.00  0.00     0.090 A 
ATOM     36  H   YKI d          15.662  13.504  26.300  0.00  0.00     0.166 HD
ATOM     37  C28 YKI d          12.817  13.939  24.750  0.00  0.00     0.033 A 
ENDBRANCH  25  28
ENDBRANCH  14  24
TORSDOF 2
ENDMDL
